Auto-Transcript Start Time:  15:48:14, 01 Apr 2026 Eastern Daylight Time 
Current Directory: "C:\Users\Research\Desktop\CBT_pred"
Information: The server has started and is running.

              Welcome to ANSYS Fluent 2024 R2

              Copyright 1987-2024 ANSYS, Inc. All Rights Reserved.
              Unauthorized use, distribution or duplication is prohibited.
              This product is subject to U.S. laws governing export and re-export.
              For full Legal Notice, see documentation.

Build Time: May 13 2024 11:21:01 EST  Build Id: 10192  
 
Connected License Server List:	1055@iprevail.ad.uc.edu

     --------------------------------------------------------------
     This is an academic version of ANSYS FLUENT. Usage of this product
     license is limited to the terms and conditions specified in your ANSYS
     license form, additional terms section.
     --------------------------------------------------------------
Host spawning Node 0 on machine "BME-BANER-01" (win64).

-------------------------------------------------------------------------------
ID    Hostname      Core  O.S.         PID    Vendor                         
-------------------------------------------------------------------------------
n3    BME-BANER-01  4/8  Windows-x64  9400   Intel(R) Core(TM) i7-9700      
n2    BME-BANER-01  3/8  Windows-x64  19024  Intel(R) Core(TM) i7-9700      
n1    BME-BANER-01  2/8  Windows-x64  1620   Intel(R) Core(TM) i7-9700      
n0*   BME-BANER-01  1/8  Windows-x64  1460   Intel(R) Core(TM) i7-9700      
host  BME-BANER-01       Windows-x64  14616  Intel(R) Core(TM) i7-9700      

MPI Option Selected: intel
Selected system interconnect: default
-------------------------------------------------------------------------------

Cleanup script file is C:\\Users\\Research\\Desktop\\CBT_pred\\cleanup-fluent-BME-BANER-01-14616.bat
>>> Fast-loading "C:\PROGRA~1\ANSYSI~1\v242\fluent\fluent24.2.0\\addons\afd\lib\hdfio.bin"
Done.
Multicore processors detected. Processor affinity set!

Reading from BME-BANER-01:"C:\Users\Research\Desktop\CBT_pred\cases\exercise\with_sweating\case_1\Exercise_Case_SteadyState_1.cas.h5" in NODE0 mode ...
  Reading mesh ...
       59946 cells,     3 cell zones ...
            918 hexahedral cells,  zone id: 8
          57345 mixed cells,  zone id: 9
           1683 tetrahedral cells,  zone id: 10
      127549 faces,     9 face zones ...
          11168 triangular wall faces,  zone id: 1
            336 triangular wall faces,  zone id: 2
             60 triangular wall faces,  zone id: 3
             60 triangular wall faces,  zone id: 12
            618 quadrilateral wall faces,  zone id: 4
            618 quadrilateral wall faces,  zone id: 13
           2445 quadrilateral interior faces,  zone id: 5
           3168 triangular interior faces,  zone id: 6
         109076 triangular interior faces,  zone id: 7
       14632 nodes,     1 node zone  ...
  Done.


Checking the existence of compiled "libudf" UDF library for current platform.
If needed will attempt auto-compilation...

 	 Make sure that UDF source files are in the directory 
 	 that contains your case and data files. If you have 
 	 an existing libudf directory, please remove this 
 	 directory to ensure that latest files are used. 
  

Will now auto-compile UDF library "libudf".
Copy "C:\Users\Research\Desktop\CBT_pred\cases\exercise\with_sweating\case_1\case1_parametrized.c" to "C:\Users\Research\Desktop\CBT_pred\cases\exercise\with_sweating\case_1\\libudf\\src"
Files udf_names.c and user_nt.udf in 3ddp_host are up-to-date.

Copyright 1987-2024 ANSYS, Inc. All Rights Reserved.
Compiler and linker: Clang (builtin)

scons: warning: No version of Visual Studio compiler found - C/C++ compilers most likely not set correctly
File "C:\\Users\\Research\\Desktop\\CBT_pred\\cases\\exercise\\with_sweating\\case_1\\libudf\\win64\\3ddp_host\\SConstruct", line 20, in <module>
Compiler path: "C:\\PROGRA~1\\ANSYSI~1\\v242\\fluent"\\ntbin\\clang\\bin\\clang-cl
Linker   path: "C:\\PROGRA~1\\ANSYSI~1\\v242\\fluent"\\ntbin\\clang\\bin\\lld-link

scons: warning: No version of Visual Studio compiler found - C/C++ compilers most likely not set correctly
File "C:\\Users\\Research\\Desktop\\CBT_pred\\cases\\exercise\\with_sweating\\case_1\\libudf\\win64\\3ddp_host\\SConstruct", line 156, in <module>
C sources: ['case1_parametrized.c']
Files udf_names.c and user_nt.udf in 3ddp_node are up-to-date.

Copyright 1987-2024 ANSYS, Inc. All Rights Reserved.
Compiler and linker: Clang (builtin)

scons: warning: No version of Visual Studio compiler found - C/C++ compilers most likely not set correctly
File "C:\\Users\\Research\\Desktop\\CBT_pred\\cases\\exercise\\with_sweating\\case_1\\libudf\\win64\\3ddp_node\\SConstruct", line 20, in <module>
Compiler path: "C:\\PROGRA~1\\ANSYSI~1\\v242\\fluent"\\ntbin\\clang\\bin\\clang-cl
Linker   path: "C:\\PROGRA~1\\ANSYSI~1\\v242\\fluent"\\ntbin\\clang\\bin\\lld-link

scons: warning: No version of Visual Studio compiler found - C/C++ compilers most likely not set correctly
File "C:\\Users\\Research\\Desktop\\CBT_pred\\cases\\exercise\\with_sweating\\case_1\\libudf\\win64\\3ddp_node\\SConstruct", line 156, in <module>
C sources: ['case1_parametrized.c']

Done.

BME-BANER-01: Opening library "C:\\Users\\Research\\Desktop\\CBT_pred\\cases\\exercise\\with_sweating\\case_1\\libudf"...
Done.

BME-BANER-01: Opening library "C:\\Users\\Research\\Desktop\\CBT_pred\\cases\\exercise\\with_sweating\\case_1\\libudf"...
	head_source
	organ_source
	muscle_source
	blood_temperature
	convection_heat_transfer
Done.

Building...
     mesh
	distributing mesh
		pairs....,
		parts....,
		faces....,
		nodes....,
		shadow nodes....,
		cells....,
        bandwidth reduction using Reverse Cuthill-McKee: 14875/334 = 44.5359
     materials,
     interface,
     domains,
	mixture
     zones,
	interior-part-muscle
	interior-part-head
	interior-part-organs
	wall-part-head
	wall-part-muscle
	interior-part-head-part-muscle
	interior-part-muscle-part-organs
	interior-part-head-part-muscle-shadow
	interior-part-muscle-part-organs-shadow
	part-head
	part-muscle
	part-organs
     parallel,
Done.

Reading journal file C:\Users\Research\Desktop\CBT_pred\cases\exercise\with_sweating\case_1\change_parameter.log...

> /file/set-tui-version "24.1"

> (cx-gui-do cx-set-list-tree-selections "NavigationPane*Frame2*Table1*List_Tree2" (list "Parameters & Customization|Parameters|Input Parameters"))



> (cx-gui-do cx-set-list-tree-selections "NavigationPane*Frame2*Table1*List_Tree2" (list "Parameters & Customization|Parameters|Input Parameters"))



> (cx-gui-do cx-activate-item "NavigationPane*Frame2*Table1*List_Tree2")



> (cx-gui-do cx-set-list-tree-selections "NavigationPane*Frame2*Table1*List_Tree2" (list "Parameters & Customization|Parameters|Input Parameters"))



> (cx-gui-do cx-set-list-selections "Parameters*Table1*Table1*List1(Input Parameters)" '( 8))



> (cx-gui-do cx-activate-item "Parameters*Table1*Table1*List1(Input Parameters)")



> (cx-gui-do cx-activate-item "Parameters*Table1*Table1*Table2*PushButton1(Edit)")
(cx-gui-do cx-activate-tab-index "Expression*Table1*Frame1" 0)
(cx-gui-do cx-activate-tab-index "Expression*Table1*Frame1" 1)
(cx-gui-do cx-activate-tab-index "Expression*Table1*Frame1" 0)

(cx-gui-do cx-activate-tab-index "Expression*Table1*Frame1" 0)

Error: cx-name-to-id: cannot find widget:
Error Object: "Expression*Table1*Frame1"

(cx-gui-do cx-activate-tab-index "Expression*Table1*Frame1" 1)

Error: cx-name-to-id: cannot find widget:
Error Object: "Expression*Table1*Frame1"

(cx-gui-do cx-activate-tab-index "Expression*Table1*Frame1" 0)

Error: cx-name-to-id: cannot find widget:
Error Object: "Expression*Table1*Frame1"

(cx-gui-do cx-set-expression-entry "Parameter Expression*Table1*ExpressionEntry3(Definition)" '("9827.423828125[W/m^3]" . 1))

(cx-gui-do cx-activate-item "Parameter Expression*Table1*ExpressionEntry3(Definition)")

(cx-gui-do cx-activate-item "Parameter Expression*PanelButtons*PushButton1(OK)")
(cx-gui-do cx-activate-item "Parameter Expression*PanelButtons*PushButton1(OK)")



> (cx-gui-do cx-set-list-selections "Parameters*Table1*Table1*List1(Input Parameters)" '( 9))



> (cx-gui-do cx-activate-item "Parameters*Table1*Table1*List1(Input Parameters)")



> (cx-gui-do cx-activate-item "Parameters*Table1*Table1*Table2*PushButton1(Edit)")

(cx-gui-do cx-set-expression-entry "Parameter Expression*Table1*ExpressionEntry3(Definition)" '("509.29290771484375 [W/m^3]" . 1))

(cx-gui-do cx-activate-item "Parameter Expression*Table1*ExpressionEntry3(Definition)")

(cx-gui-do cx-activate-item "Parameter Expression*PanelButtons*PushButton1(OK)")
(cx-gui-do cx-activate-item "Parameter Expression*PanelButtons*PushButton1(OK)")



> (cx-gui-do cx-set-list-selections "Parameters*Table1*Table1*List1(Input Parameters)" '( 10))



> (cx-gui-do cx-activate-item "Parameters*Table1*Table1*List1(Input Parameters)")



> (cx-gui-do cx-activate-item "Parameters*Table1*Table1*Table2*PushButton1(Edit)")

(cx-gui-do cx-set-expression-entry "Parameter Expression*Table1*ExpressionEntry3(Definition)" '("1158.54052734375 [W/m^3]" . 1))

(cx-gui-do cx-activate-item "Parameter Expression*Table1*ExpressionEntry3(Definition)")

(cx-gui-do cx-activate-item "Parameter Expression*PanelButtons*PushButton1(OK)")
(cx-gui-do cx-activate-item "Parameter Expression*PanelButtons*PushButton1(OK)")



> (cx-gui-do cx-set-list-selections "Parameters*Table1*Table1*List1(Input Parameters)" '( 7))



> (cx-gui-do cx-activate-item "Parameters*Table1*Table1*List1(Input Parameters)")



> (cx-gui-do cx-activate-item "Parameters*Table1*Table1*Table2*PushButton1(Edit)")

(cx-gui-do cx-set-expression-entry "Parameter Expression*Table1*ExpressionEntry3(Definition)" '("46.45134353637695 [C]" . 1))

(cx-gui-do cx-activate-item "Parameter Expression*Table1*ExpressionEntry3(Definition)")

(cx-gui-do cx-activate-item "Parameter Expression*PanelButtons*PushButton1(OK)")
(cx-gui-do cx-activate-item "Parameter Expression*PanelButtons*PushButton1(OK)")



> (cx-gui-do cx-set-list-selections "Parameters*Table1*Table1*List1(Input Parameters)" '( 6))



> (cx-gui-do cx-activate-item "Parameters*Table1*Table1*List1(Input Parameters)")



> (cx-gui-do cx-activate-item "Parameters*Table1*Table1*Table2*PushButton1(Edit)")

(cx-gui-do cx-set-expression-entry "Parameter Expression*Table1*ExpressionEntry3(Definition)" '("8.241640090942383 [W/m^2 K]" . 1))

(cx-gui-do cx-activate-item "Parameter Expression*Table1*ExpressionEntry3(Definition)")

(cx-gui-do cx-activate-item "Parameter Expression*PanelButtons*PushButton1(OK)")
(cx-gui-do cx-activate-item "Parameter Expression*PanelButtons*PushButton1(OK)")



> (cx-gui-do cx-activate-item "Parameters*PanelButtons*PushButton1(Close)")
(cx-gui-do cx-activate-item "Parameters*PanelButtons*PushButton1(Close)")



> (cx-gui-do cx-activate-item "MenuBar*WriteSubMenu*Stop Journal")



> 
Reading journal file C:\Users\Research\Desktop\CBT_pred\cases\exercise\with_sweating\case_1\steady_and_transient.log...

> /file/set-tui-version "24.1"

> (cx-gui-do cx-set-list-tree-selections "NavigationPane*Frame2*Table1*List_Tree2" (list "Setup|General"))



> (cx-gui-do cx-set-toggle-button2 "General*Table1*Table2(Solver)*ToggleBox5(Time)*Steady" #t)



> (cx-gui-do cx-activate-item "General*Table1*Table2(Solver)*ToggleBox5(Time)*Steady")
Warning:Instantaneous values of report definitions will be used for "core_temp-rplot" as the "frequency-of" is set to "iteration".
Warning:Instantaneous values of report definitions will be used for "wavg_tiss_temp-rplot" as the "frequency-of" is set to "iteration".
Warning:Instantaneous values of report definitions will be used for "blood_temp-rplot" as the "frequency-of" is set to "iteration".
Warning:Instantaneous values of report definitions will be used for "report-def-0-rplot" as the "frequency-of" is set to "iteration".
Warning:Instantaneous values of report definitions will be used for "report-plot-0" as the "frequency-of" is set to "iteration".
Information: Report Plot(s) core_temp-rplot, wavg_tiss_temp-rplot, blood_temp-rplot, report-def-0-rplot, report-plot-0 updated to get data every iteration.
Information: Report File(s) core_temp-rfile, wavg_tiss_temp-rfile, blood_temp-rfile, report-def-0-rfile, report-file-0 updated to get data every iteration.


Warning: Removing report definition flow-time from blood_temp-rfile.
Warning: Removing report definition flow-time from core_temp-rfile.
Warning: Removing report definition flow-time from report-def-0-rfile.
Warning: Removing report definition flow-time from report-file-0.
Warning: Removing report definition flow-time from wavg_tiss_temp-rfile.

> (cx-gui-do cx-activate-item "Ribbon*Frame1*Frame5(Solution)*Table1*Table3(Initialization)*PushButton6(Initialize)")
F_t: 298.15
t_skin: 25
conv+sweat: 176.794
F_t: 298.15
t_skin: 25
conv+sweat: 176.794
F_t: 298.15
t_skin: 25
conv+sweat: 176.794
F_t: 298.15
t_skin: 25
conv+sweat: 176.794
F_t: 298.15
t_skin: 25
conv+sweat: 176.794
F_t: 298.15
t_skin: 25
conv+sweat: 176.794
F_t: 298.15
t_skin: 25
conv+sweat: 176.794
F_t: 298.15
t_skin: 25
conv+sweat: 176.794
F_t: 298.15
t_skin: 25
conv+sweat: 176.794
F_t: 298.15
t_skin: 25
conv+sweat: 176.794
F_t: 298.15
t_skin: 25
conv+sweat: 176.794
F_t: 298.15
t_skin: 25
conv+sweat: 176.794
F_t: 298.15
t_skin: 25
conv+sweat: 176.794
F_t: 298.15
t_skin: 25
conv+sweat: 176.794
F_t: 298.15
t_skin: 25
conv+sweat: 176.794
F_t: 298.15
t_skin: 25
conv+sweat: 176.794
F_t: 298.15
t_skin: 25
conv+sweat: 176.794
F_t: 298.15
t_skin: 25
conv+sweat: 176.794
F_t: 298.15
t_skin: 25
conv+sweat: 176.794
F_t: 298.15
t_skin: 25
conv+sweat: 176.794
F_t: 298.15
t_skin: 25
conv+sweat: 176.794
F_t: 298.15
t_skin: 25
conv+sweat: 176.794
F_t: 298.15
t_skin: 25
conv+sweat: 176.794
F_t: 298.15
t_skin: 25
conv+sweat: 176.794
F_t: 298.15
t_skin: 25
conv+sweat: 176.794
F_t: 298.15
t_skin: 25
conv+sweat: 176.794
F_t: 298.15
t_skin: 25
conv+sweat: 176.794
F_t: 298.15
t_skin: 25
conv+sweat: 176.794
F_t: 298.15
t_skin: 25
conv+sweat: 176.794
F_t: 298.15
t_skin: 25
conv+sweat: 176.794
F_t: 298.15
t_skin: 25
conv+sweat: 176.794
F_t: 298.15
t_skin: 25
conv+sweat: 176.794
F_t: 298.15
t_skin: 25
conv+sweat: 176.794
F_t: 298.15
t_skin: 25
conv+sweat: 176.794
F_t: 298.15
t_skin: 25
conv+sweat: 176.794
F_t: 298.15
t_skin: 25
conv+sweat: 176.794
F_t: 298.15
t_skin: 25
conv+sweat: 176.794
F_t: 298.15
t_skin: 25
conv+sweat: 176.794
F_t: 298.15
t_skin: 25
conv+sweat: 176.794
F_t: 298.15
t_skin: 25
conv+sweat: 176.794
F_t: 298.15
t_skin: 25
conv+sweat: 176.794
F_t: 298.15
t_skin: 25
conv+sweat: 176.794
F_t: 298.15
t_skin: 25
conv+sweat: 176.794
F_t: 298.15
t_skin: 25
conv+sweat: 176.794
F_t: 298.15
t_skin: 25
conv+sweat: 176.794
F_t: 298.15
t_skin: 25
conv+sweat: 176.794
F_t: 298.15
t_skin: 25
conv+sweat: 176.794
F_t: 298.15
t_skin: 25
conv+sweat: 176.794
F_t: 298.15
t_skin: 25
conv+sweat: 176.794
F_t: 298.15
t_skin: 25
conv+sweat: 176.794
F_t: 298.15
t_skin: 25
conv+sweat: 176.794
F_t: 298.15
t_skin: 25
conv+sweat: 176.794
F_t: 298.15
t_skin: 25
conv+sweat: 176.794
F_t: 298.15
t_skin: 25
conv+sweat: 176.794
F_t: 298.15
t_skin: 25
conv+sweat: 176.794
F_t: 298.15
t_skin: 25
conv+sweat: 176.794
F_t: 298.15
t_skin: 25
conv+sweat: 176.794
F_t: 298.15
t_skin: 25
conv+sweat: 176.794
F_t: 298.15
t_skin: 25
conv+sweat: 176.794
F_t: 298.15
t_skin: 25
conv+sweat: 176.794
F_t: 298.15
t_skin: 25
conv+sweat: 176.794
F_t: 298.15
t_skin: 25
conv+sweat: 176.794
F_t: 298.15
t_skin: 25
conv+sweat: 176.794
F_t: 298.15
t_skin: 25
conv+sweat: 176.794
F_t: 298.15
t_skin: 25
conv+sweat: 176.794
F_t: 298.15
t_skin: 25
conv+sweat: 176.794
F_t: 298.15
t_skin: 25
conv+sweat: 176.794
F_t: 298.15
t_skin: 25
conv+sweat: 176.794
F_t: 298.15
t_skin: 25
conv+sweat: 176.794
F_t: 298.15
t_skin: 25
conv+sweat: 176.794
F_t: 298.15
t_skin: 25
conv+sweat: 176.794
F_t: 298.15
t_skin: 25
conv+sweat: 176.794
F_t: 298.15
t_skin: 25
conv+sweat: 176.794
F_t: 298.15
t_skin: 25
conv+sweat: 176.794
F_t: 298.15
t_skin: 25
conv+sweat: 176.794
F_t: 298.15
t_skin: 25
conv+sweat: 176.794
F_t: 298.15
t_skin: 25
conv+sweat: 176.794
F_t: 298.15
t_skin: 25
conv+sweat: 176.794
F_t: 298.15
t_skin: 25
conv+sweat: 176.794
F_t: 298.15
t_skin: 25
conv+sweat: 176.794
F_t: 298.15
t_skin: 25
conv+sweat: 176.794
F_t: 298.15
t_skin: 25
conv+sweat: 176.794
F_t: 298.15
t_skin: 25
conv+sweat: 176.794
F_t: 298.15
t_skin: 25
conv+sweat: 176.794
F_t: 298.15
t_skin: 25
conv+sweat: 176.794
F_t: 298.15
t_skin: 25
conv+sweat: 176.794
F_t: 298.15
t_skin: 25
conv+sweat: 176.794
F_t: 298.15
t_skin: 25
conv+sweat: 176.794
F_t: 298.15
t_skin: 25
conv+sweat: 176.794
F_t: 298.15
t_skin: 25
conv+sweat: 176.794
F_t: 298.15
t_skin: 25
conv+sweat: 176.794
F_t: 298.15
t_skin: 25
conv+sweat: 176.794
F_t: 298.15
t_skin: 25
conv+sweat: 176.794
F_t: 298.15
t_skin: 25
conv+sweat: 176.794
F_t: 298.15
t_skin: 25
conv+sweat: 176.794
F_t: 298.15
t_skin: 25
conv+sweat: 176.794
F_t: 298.15
t_skin: 25
conv+sweat: 176.794
F_t: 298.15
t_skin: 25
conv+sweat: 176.794
F_t: 298.15
t_skin: 25
conv+sweat: 176.794
F_t: 298.15
t_skin: 25
conv+sweat: 176.794
F_t: 298.15
t_skin: 25
conv+sweat: 176.794
F_t: 298.15
t_skin: 25
conv+sweat: 176.794
F_t: 298.15
t_skin: 25
conv+sweat: 176.794
F_t: 298.15
t_skin: 25
conv+sweat: 176.794
F_t: 298.15
t_skin: 25
conv+sweat: 176.794
F_t: 298.15
t_skin: 25
conv+sweat: 176.794
F_t: 298.15
t_skin: 25
conv+sweat: 176.794
F_t: 298.15
t_skin: 25
conv+sweat: 176.794
F_t: 298.15
t_skin: 25
conv+sweat: 176.794
F_t: 298.15
t_skin: 25
conv+sweat: 176.794
F_t: 298.15
t_skin: 25
conv+sweat: 176.794
F_t: 298.15
t_skin: 25
conv+sweat: 176.794
F_t: 298.15
t_skin: 25
conv+sweat: 176.794
F_t: 298.15
t_skin: 25
conv+sweat: 176.794
F_t: 298.15
t_skin: 25
conv+sweat: 176.794
F_t: 298.15
t_skin: 25
conv+sweat: 176.794
F_t: 298.15
t_skin: 25
conv+sweat: 176.794
F_t: 298.15
t_skin: 25
conv+sweat: 176.794
F_t: 298.15
t_skin: 25
conv+sweat: 176.794
F_t: 298.15
t_skin: 25
conv+sweat: 176.794
F_t: 298.15
t_skin: 25
conv+sweat: 176.794
F_t: 298.15
t_skin: 25
conv+sweat: 176.794
F_t: 298.15
t_skin: 25
conv+sweat: 176.794
F_t: 298.15
t_skin: 25
conv+sweat: 176.794
F_t: 298.15
t_skin: 25
conv+sweat: 176.794
F_t: 298.15
t_skin: 25
conv+sweat: 176.794
F_t: 298.15
t_skin: 25
conv+sweat: 176.794
F_t: 298.15
t_skin: 25
conv+sweat: 176.794
F_t: 298.15
t_skin: 25
conv+sweat: 176.794
F_t: 298.15
t_skin: 25
conv+sweat: 176.794
F_t: 298.15
t_skin: 25
conv+sweat: 176.794
F_t: 298.15
t_skin: 25
conv+sweat: 176.794
F_t: 298.15
t_skin: 25
conv+sweat: 176.794
F_t: 298.15
t_skin: 25
conv+sweat: 176.794
F_t: 298.15
t_skin: 25
conv+sweat: 176.794
F_t: 298.15
t_skin: 25
conv+sweat: 176.794
F_t: 298.15
t_skin: 25
conv+sweat: 176.794
F_t: 298.15
t_skin: 25
conv+sweat: 176.794
F_t: 298.15
t_skin: 25
conv+sweat: 176.794
F_t: 298.15
t_skin: 25
conv+sweat: 176.794
F_t: 298.15
t_skin: 25
conv+sweat: 176.794
F_t: 298.15
t_skin: 25
conv+sweat: 176.794
F_t: 298.15
t_skin: 25
conv+sweat: 176.794
F_t: 298.15
t_skin: 25
conv+sweat: 176.794
F_t: 298.15
t_skin: 25
conv+sweat: 176.794
F_t: 298.15
t_skin: 25
conv+sweat: 176.794
F_t: 298.15
t_skin: 25
conv+sweat: 176.794
F_t: 298.15
t_skin: 25
conv+sweat: 176.794
F_t: 298.15
t_skin: 25
conv+sweat: 176.794
F_t: 298.15
t_skin: 25
conv+sweat: 176.794
F_t: 298.15
t_skin: 25
conv+sweat: 176.794
F_t: 298.15
t_skin: 25
conv+sweat: 176.794
F_t: 298.15
t_skin: 25
conv+sweat: 176.794
F_t: 298.15
t_skin: 25
conv+sweat: 176.794
F_t: 298.15
t_skin: 25
conv+sweat: 176.794
F_t: 298.15
t_skin: 25
conv+sweat: 176.794
F_t: 298.15
t_skin: 25
conv+sweat: 176.794
F_t: 298.15
t_skin: 25
conv+sweat: 176.794
F_t: 298.15
t_skin: 25
conv+sweat: 176.794
F_t: 298.15
t_skin: 25
conv+sweat: 176.794
F_t: 298.15
t_skin: 25
conv+sweat: 176.794
F_t: 298.15
t_skin: 25
conv+sweat: 176.794
F_t: 298.15
t_skin: 25
conv+sweat: 176.794
F_t: 298.15
t_skin: 25
conv+sweat: 176.794
F_t: 298.15
t_skin: 25
conv+sweat: 176.794
F_t: 298.15
t_skin: 25
conv+sweat: 176.794
F_t: 298.15
t_skin: 25
conv+sweat: 176.794
F_t: 298.15
t_skin: 25
conv+sweat: 176.794
F_t: 298.15
t_skin: 25
conv+sweat: 176.794
F_t: 298.15
t_skin: 25
conv+sweat: 176.794
F_t: 298.15
t_skin: 25
conv+sweat: 176.794
F_t: 298.15
t_skin: 25
conv+sweat: 176.794
F_t: 298.15
t_skin: 25
conv+sweat: 176.794
F_t: 298.15
t_skin: 25
conv+sweat: 176.794
F_t: 298.15
t_skin: 25
conv+sweat: 176.794
F_t: 298.15
t_skin: 25
conv+sweat: 176.794
F_t: 298.15
t_skin: 25
conv+sweat: 176.794
F_t: 298.15
t_skin: 25
conv+sweat: 176.794
F_t: 298.15
t_skin: 25
conv+sweat: 176.794
F_t: 298.15
t_skin: 25
conv+sweat: 176.794
F_t: 298.15
t_skin: 25
conv+sweat: 176.794
F_t: 298.15
t_skin: 25
conv+sweat: 176.794
F_t: 298.15
t_skin: 25
conv+sweat: 176.794
F_t: 298.15
t_skin: 25
conv+sweat: 176.794
F_t: 298.15
t_skin: 25
conv+sweat: 176.794
F_t: 298.15
t_skin: 25
conv+sweat: 176.794
F_t: 298.15
t_skin: 25
conv+sweat: 176.794
F_t: 298.15
t_skin: 25
conv+sweat: 176.794
F_t: 298.15
t_skin: 25
conv+sweat: 176.794
F_t: 298.15
t_skin: 25
conv+sweat: 176.794
F_t: 298.15
t_skin: 25
conv+sweat: 176.794
F_t: 298.15
t_skin: 25
conv+sweat: 176.794
F_t: 298.15
t_skin: 25
conv+sweat: 176.794
F_t: 298.15
t_skin: 25
conv+sweat: 176.794
F_t: 298.15
t_skin: 25
conv+sweat: 176.794
F_t: 298.15
t_skin: 25
conv+sweat: 176.794
F_t: 298.15
t_skin: 25
conv+sweat: 176.794
F_t: 298.15
t_skin: 25
conv+sweat: 176.794
F_t: 298.15
t_skin: 25
conv+sweat: 176.794
F_t: 298.15
t_skin: 25
conv+sweat: 176.794
F_t: 298.15
t_skin: 25
conv+sweat: 176.794
F_t: 298.15
t_skin: 25
conv+sweat: 176.794
F_t: 298.15
t_skin: 25
conv+sweat: 176.794
F_t: 298.15
t_skin: 25
conv+sweat: 176.794
F_t: 298.15
t_skin: 25
conv+sweat: 176.794
F_t: 298.15
t_skin: 25
conv+sweat: 176.794
F_t: 298.15
t_skin: 25
conv+sweat: 176.794
F_t: 298.15
t_skin: 25
conv+sweat: 176.794
F_t: 298.15
t_skin: 25
conv+sweat: 176.794
F_t: 298.15
t_skin: 25
conv+sweat: 176.794
F_t: 298.15
t_skin: 25
conv+sweat: 176.794
F_t: 298.15
t_skin: 25
conv+sweat: 176.794
F_t: 298.15
t_skin: 25
conv+sweat: 176.794
F_t: 298.15
t_skin: 25
conv+sweat: 176.794
F_t: 298.15
t_skin: 25
conv+sweat: 176.794
F_t: 298.15
t_skin: 25
conv+sweat: 176.794
F_t: 298.15
t_skin: 25
conv+sweat: 176.794
F_t: 298.15
t_skin: 25
conv+sweat: 176.794
F_t: 298.15
t_skin: 25
conv+sweat: 176.794
F_t: 298.15
t_skin: 25
conv+sweat: 176.794
F_t: 298.15
t_skin: 25
conv+sweat: 176.794
F_t: 298.15
t_skin: 25
conv+sweat: 176.794
F_t: 298.15
t_skin: 25
conv+sweat: 176.794
F_t: 298.15
t_skin: 25
conv+sweat: 176.794
F_t: 298.15
t_skin: 25
conv+sweat: 176.794
F_t: 298.15
t_skin: 25
conv+sweat: 176.794
F_t: 298.15
t_skin: 25
conv+sweat: 176.794
F_t: 298.15
t_skin: 25
conv+sweat: 176.794
F_t: 298.15
t_skin: 25
conv+sweat: 176.794
F_t: 298.15
t_skin: 25
conv+sweat: 176.794
F_t: 298.15
t_skin: 25
conv+sweat: 176.794
F_t: 298.15
t_skin: 25
conv+sweat: 176.794
F_t: 298.15
t_skin: 25
conv+sweat: 176.794
F_t: 298.15
t_skin: 25
conv+sweat: 176.794
F_t: 298.15
t_skin: 25
conv+sweat: 176.794
F_t: 298.15
t_skin: 25
conv+sweat: 176.794
F_t: 298.15
t_skin: 25
conv+sweat: 176.794
F_t: 298.15
t_skin: 25
conv+sweat: 176.794
F_t: 298.15
t_skin: 25
conv+sweat: 176.794
F_t: 298.15
t_skin: 25
conv+sweat: 176.794
F_t: 298.15
t_skin: 25
conv+sweat: 176.794
F_t: 298.15
t_skin: 25
conv+sweat: 176.794
F_t: 298.15
t_skin: 25
conv+sweat: 176.794
F_t: 298.15
t_skin: 25
conv+sweat: 176.794
F_t: 298.15
t_skin: 25
conv+sweat: 176.794
F_t: 298.15
t_skin: 25
conv+sweat: 176.794
F_t: 298.15
t_skin: 25
conv+sweat: 176.794
F_t: 298.15
t_skin: 25
conv+sweat: 176.794
F_t: 298.15
t_skin: 25
conv+sweat: 176.794
F_t: 298.15
t_skin: 25
conv+sweat: 176.794
F_t: 298.15
t_skin: 25
conv+sweat: 176.794
F_t: 298.15
t_skin: 25
conv+sweat: 176.794
F_t: 298.15
t_skin: 25
conv+sweat: 176.794
F_t: 298.15
t_skin: 25
conv+sweat: 176.794
F_t: 298.15
t_skin: 25
conv+sweat: 176.794
F_t: 298.15
t_skin: 25
conv+sweat: 176.794
F_t: 298.15
t_skin: 25
conv+sweat: 176.794
F_t: 298.15
t_skin: 25
conv+sweat: 176.794
F_t: 298.15
t_skin: 25
conv+sweat: 176.794
F_t: 298.15
t_skin: 25
conv+sweat: 176.794
F_t: 298.15
t_skin: 25
conv+sweat: 176.794
F_t: 298.15
t_skin: 25
conv+sweat: 176.794
F_t: 298.15
t_skin: 25
conv+sweat: 176.794
F_t: 298.15
t_skin: 25
conv+sweat: 176.794
F_t: 298.15
t_skin: 25
conv+sweat: 176.794
F_t: 298.15
t_skin: 25
conv+sweat: 176.794
F_t: 298.15
t_skin: 25
conv+sweat: 176.794
F_t: 298.15
t_skin: 25
conv+sweat: 176.794
F_t: 298.15
t_skin: 25
conv+sweat: 176.794
F_t: 298.15
t_skin: 25
conv+sweat: 176.794
F_t: 298.15
t_skin: 25
conv+sweat: 176.794
F_t: 298.15
t_skin: 25
conv+sweat: 176.794
F_t: 298.15
t_skin: 25
conv+sweat: 176.794
F_t: 298.15
t_skin: 25
conv+sweat: 176.794
F_t: 298.15
t_skin: 25
conv+sweat: 176.794
F_t: 298.15
t_skin: 25
conv+sweat: 176.794
F_t: 298.15
t_skin: 25
conv+sweat: 176.794
F_t: 298.15
t_skin: 25
conv+sweat: 176.794
F_t: 298.15
t_skin: 25
conv+sweat: 176.794
F_t: 298.15
t_skin: 25
conv+sweat: 176.794
F_t: 298.15
t_skin: 25
conv+sweat: 176.794
F_t: 298.15
t_skin: 25
conv+sweat: 176.794
F_t: 298.15
t_skin: 25
conv+sweat: 176.794
F_t: 298.15
t_skin: 25
conv+sweat: 176.794
F_t: 298.15
t_skin: 25
conv+sweat: 176.794
F_t: 298.15
t_skin: 25
conv+sweat: 176.794
F_t: 298.15
t_skin: 25
conv+sweat: 176.794
F_t: 298.15
t_skin: 25
conv+sweat: 176.794
F_t: 298.15
t_skin: 25
conv+sweat: 176.794
F_t: 298.15
t_skin: 25
conv+sweat: 176.794
F_t: 298.15
t_skin: 25
conv+sweat: 176.794
F_t: 298.15
t_skin: 25
conv+sweat: 176.794
F_t: 298.15
t_skin: 25
conv+sweat: 176.794
F_t: 298.15
t_skin: 25
conv+sweat: 176.794
F_t: 298.15
t_skin: 25
conv+sweat: 176.794
F_t: 298.15
t_skin: 25
conv+sweat: 176.794
F_t: 298.15
t_skin: 25
conv+sweat: 176.794
F_t: 298.15
t_skin: 25
conv+sweat: 176.794
F_t: 298.15
t_skin: 25
conv+sweat: 176.794
F_t: 298.15
t_skin: 25
conv+sweat: 176.794
F_t: 298.15
t_skin: 25
conv+sweat: 176.794
F_t: 298.15
t_skin: 25
conv+sweat: 176.794
F_t: 298.15
t_skin: 25
conv+sweat: 176.794
F_t: 298.15
t_skin: 25
conv+sweat: 176.794
F_t: 298.15
t_skin: 25
conv+sweat: 176.794
F_t: 298.15
t_skin: 25
conv+sweat: 176.794
F_t: 298.15
t_skin: 25
conv+sweat: 176.794
F_t: 298.15
t_skin: 25
conv+sweat: 176.794
F_t: 298.15
t_skin: 25
conv+sweat: 176.794
F_t: 298.15
t_skin: 25
conv+sweat: 176.794
F_t: 298.15
t_skin: 25
conv+sweat: 176.794
F_t: 298.15
t_skin: 25
conv+sweat: 176.794
F_t: 298.15
t_skin: 25
conv+sweat: 176.794
F_t: 298.15
t_skin: 25
conv+sweat: 176.794
F_t: 298.15
t_skin: 25
conv+sweat: 176.794
F_t: 298.15
t_skin: 25
conv+sweat: 176.794
F_t: 298.15
t_skin: 25
conv+sweat: 176.794
F_t: 298.15
t_skin: 25
conv+sweat: 176.794
F_t: 298.15
t_skin: 25
conv+sweat: 176.794
F_t: 298.15
t_skin: 25
conv+sweat: 176.794
F_t: 298.15
t_skin: 25
conv+sweat: 176.794
F_t: 298.15
t_skin: 25
conv+sweat: 176.794
F_t: 298.15
t_skin: 25
conv+sweat: 176.794
F_t: 298.15
t_skin: 25
conv+sweat: 176.794
F_t: 298.15
t_skin: 25
conv+sweat: 176.794
F_t: 298.15
t_skin: 25
conv+sweat: 176.794
F_t: 298.15
t_skin: 25
conv+sweat: 176.794
F_t: 298.15
t_skin: 25
conv+sweat: 176.794
F_t: 298.15
t_skin: 25
conv+sweat: 176.794
F_t: 298.15
t_skin: 25
conv+sweat: 176.794
F_t: 298.15
t_skin: 25
conv+sweat: 176.794
F_t: 298.15
t_skin: 25
conv+sweat: 176.794
F_t: 298.15
t_skin: 25
conv+sweat: 176.794
F_t: 298.15
t_skin: 25
conv+sweat: 176.794
F_t: 298.15
t_skin: 25
conv+sweat: 176.794
F_t: 298.15
t_skin: 25
conv+sweat: 176.794
F_t: 298.15
t_skin: 25
conv+sweat: 176.794
F_t: 298.15
t_skin: 25
conv+sweat: 176.794
F_t: 298.15
t_skin: 25
conv+sweat: 176.794
F_t: 298.15
t_skin: 25
conv+sweat: 176.794
F_t: 298.15
t_skin: 25
conv+sweat: 176.794
F_t: 298.15
t_skin: 25
conv+sweat: 176.794
F_t: 298.15
t_skin: 25
conv+sweat: 176.794
F_t: 298.15
t_skin: 25
conv+sweat: 176.794
F_t: 298.15
t_skin: 25
conv+sweat: 176.794
F_t: 298.15
t_skin: 25
conv+sweat: 176.794
F_t: 298.15
t_skin: 25
conv+sweat: 176.794
F_t: 298.15
t_skin: 25
conv+sweat: 176.794
F_t: 298.15
t_skin: 25
conv+sweat: 176.794
F_t: 298.15
t_skin: 25
conv+sweat: 176.794
F_t: 298.15
t_skin: 25
conv+sweat: 176.794
F_t: 298.15
t_skin: 25
conv+sweat: 176.794
F_t: 298.15
t_skin: 25
conv+sweat: 176.794
F_t: 298.15
t_skin: 25
conv+sweat: 176.794
F_t: 298.15
t_skin: 25
conv+sweat: 176.794
F_t: 298.15
t_skin: 25
conv+sweat: 176.794
F_t: 298.15
t_skin: 25
conv+sweat: 176.794
F_t: 298.15
t_skin: 25
conv+sweat: 176.794
F_t: 298.15
t_skin: 25
conv+sweat: 176.794
F_t: 298.15
t_skin: 25
conv+sweat: 176.794
F_t: 298.15
t_skin: 25
conv+sweat: 176.794
F_t: 298.15
t_skin: 25
conv+sweat: 176.794
F_t: 298.15
t_skin: 25
conv+sweat: 176.794
F_t: 298.15
t_skin: 25
conv+sweat: 176.794
F_t: 298.15
t_skin: 25
conv+sweat: 176.794
F_t: 298.15
t_skin: 25
conv+sweat: 176.794
F_t: 298.15
t_skin: 25
conv+sweat: 176.794
F_t: 298.15
t_skin: 25
conv+sweat: 176.794
F_t: 298.15
t_skin: 25
conv+sweat: 176.794
F_t: 298.15
t_skin: 25
conv+sweat: 176.794
F_t: 298.15
t_skin: 25
conv+sweat: 176.794
F_t: 298.15
t_skin: 25
conv+sweat: 176.794
F_t: 298.15
t_skin: 25
conv+sweat: 176.794
F_t: 298.15
t_skin: 25
conv+sweat: 176.794
F_t: 298.15
t_skin: 25
conv+sweat: 176.794
F_t: 298.15
t_skin: 25
conv+sweat: 176.794
F_t: 298.15
t_skin: 25
conv+sweat: 176.794
F_t: 298.15
t_skin: 25
conv+sweat: 176.794
F_t: 298.15
t_skin: 25
conv+sweat: 176.794
F_t: 298.15
t_skin: 25
conv+sweat: 176.794
F_t: 298.15
t_skin: 25
conv+sweat: 176.794
F_t: 298.15
t_skin: 25
conv+sweat: 176.794
F_t: 298.15
t_skin: 25
conv+sweat: 176.794
F_t: 298.15
t_skin: 25
conv+sweat: 176.794
F_t: 298.15
t_skin: 25
conv+sweat: 176.794
F_t: 298.15
t_skin: 25
conv+sweat: 176.794
F_t: 298.15
t_skin: 25
conv+sweat: 176.794
F_t: 298.15
t_skin: 25
conv+sweat: 176.794
F_t: 298.15
t_skin: 25
conv+sweat: 176.794
F_t: 298.15
t_skin: 25
conv+sweat: 176.794
F_t: 298.15
t_skin: 25
conv+sweat: 176.794
F_t: 298.15
t_skin: 25
conv+sweat: 176.794
F_t: 298.15
t_skin: 25
conv+sweat: 176.794
F_t: 298.15
t_skin: 25
conv+sweat: 176.794
F_t: 298.15
t_skin: 25
conv+sweat: 176.794
F_t: 298.15
t_skin: 25
conv+sweat: 176.794
F_t: 298.15
t_skin: 25
conv+sweat: 176.794
F_t: 298.15
t_skin: 25
conv+sweat: 176.794
F_t: 298.15
t_skin: 25
conv+sweat: 176.794
F_t: 298.15
t_skin: 25
conv+sweat: 176.794
F_t: 298.15
t_skin: 25
conv+sweat: 176.794
F_t: 298.15
t_skin: 25
conv+sweat: 176.794
F_t: 298.15
t_skin: 25
conv+sweat: 176.794
F_t: 298.15
t_skin: 25
conv+sweat: 176.794
F_t: 298.15
t_skin: 25
conv+sweat: 176.794
F_t: 298.15
t_skin: 25
conv+sweat: 176.794
F_t: 298.15
t_skin: 25
conv+sweat: 176.794
F_t: 298.15
t_skin: 25
conv+sweat: 176.794
F_t: 298.15
t_skin: 25
conv+sweat: 176.794
F_t: 298.15
t_skin: 25
conv+sweat: 176.794
F_t: 298.15
t_skin: 25
conv+sweat: 176.794
F_t: 298.15
t_skin: 25
conv+sweat: 176.794
F_t: 298.15
t_skin: 25
conv+sweat: 176.794
F_t: 298.15
t_skin: 25
conv+sweat: 176.794
F_t: 298.15
t_skin: 25
conv+sweat: 176.794
F_t: 298.15
t_skin: 25
conv+sweat: 176.794
F_t: 298.15
t_skin: 25
conv+sweat: 176.794
F_t: 298.15
t_skin: 25
conv+sweat: 176.794
F_t: 298.15
t_skin: 25
conv+sweat: 176.794
F_t: 298.15
t_skin: 25
conv+sweat: 176.794
F_t: 298.15
t_skin: 25
conv+sweat: 176.794
F_t: 298.15
t_skin: 25
conv+sweat: 176.794
F_t: 298.15
t_skin: 25
conv+sweat: 176.794
F_t: 298.15
t_skin: 25
conv+sweat: 176.794
F_t: 298.15
t_skin: 25
conv+sweat: 176.794
F_t: 298.15
t_skin: 25
conv+sweat: 176.794
F_t: 298.15
t_skin: 25
conv+sweat: 176.794
F_t: 298.15
t_skin: 25
conv+sweat: 176.794
F_t: 298.15
t_skin: 25
conv+sweat: 176.794
F_t: 298.15
t_skin: 25
conv+sweat: 176.794
F_t: 298.15
t_skin: 25
conv+sweat: 176.794
F_t: 298.15
t_skin: 25
conv+sweat: 176.794
F_t: 298.15
t_skin: 25
conv+sweat: 176.794
F_t: 298.15
t_skin: 25
conv+sweat: 176.794
F_t: 298.15
t_skin: 25
conv+sweat: 176.794
F_t: 298.15
t_skin: 25
conv+sweat: 176.794
F_t: 298.15
t_skin: 25
conv+sweat: 176.794
F_t: 298.15
t_skin: 25
conv+sweat: 176.794
F_t: 298.15
t_skin: 25
conv+sweat: 176.794
F_t: 298.15
t_skin: 25
conv+sweat: 176.794
F_t: 298.15
t_skin: 25
conv+sweat: 176.794
F_t: 298.15
t_skin: 25
conv+sweat: 176.794
F_t: 298.15
t_skin: 25
conv+sweat: 176.794
F_t: 298.15
t_skin: 25
conv+sweat: 176.794
F_t: 298.15
t_skin: 25
conv+sweat: 176.794
F_t: 298.15
t_skin: 25
conv+sweat: 176.794
F_t: 298.15
t_skin: 25
conv+sweat: 176.794
F_t: 298.15
t_skin: 25
conv+sweat: 176.794
F_t: 298.15
t_skin: 25
conv+sweat: 176.794
F_t: 298.15
t_skin: 25
conv+sweat: 176.794
F_t: 298.15
t_skin: 25
conv+sweat: 176.794
F_t: 298.15
t_skin: 25
conv+sweat: 176.794
F_t: 298.15
t_skin: 25
conv+sweat: 176.794
F_t: 298.15
t_skin: 25
conv+sweat: 176.794
F_t: 298.15
t_skin: 25
conv+sweat: 176.794
F_t: 298.15
t_skin: 25
conv+sweat: 176.794
F_t: 298.15
t_skin: 25
conv+sweat: 176.794
F_t: 298.15
t_skin: 25
conv+sweat: 176.794
F_t: 298.15
t_skin: 25
conv+sweat: 176.794
F_t: 298.15
t_skin: 25
conv+sweat: 176.794
F_t: 298.15
t_skin: 25
conv+sweat: 176.794
F_t: 298.15
t_skin: 25
conv+sweat: 176.794
F_t: 298.15
t_skin: 25
conv+sweat: 176.794
F_t: 298.15
t_skin: 25
conv+sweat: 176.794
F_t: 298.15
t_skin: 25
conv+sweat: 176.794
F_t: 298.15
t_skin: 25
conv+sweat: 176.794
F_t: 298.15
t_skin: 25
conv+sweat: 176.794
F_t: 298.15
t_skin: 25
conv+sweat: 176.794
F_t: 298.15
t_skin: 25
conv+sweat: 176.794
F_t: 298.15
t_skin: 25
conv+sweat: 176.794
F_t: 298.15
t_skin: 25
conv+sweat: 176.794
F_t: 298.15
t_skin: 25
conv+sweat: 176.794
F_t: 298.15
t_skin: 25
conv+sweat: 176.794
F_t: 298.15
t_skin: 25
conv+sweat: 176.794
F_t: 298.15
t_skin: 25
conv+sweat: 176.794
F_t: 298.15
t_skin: 25
conv+sweat: 176.794
F_t: 298.15
t_skin: 25
conv+sweat: 176.794
F_t: 298.15
t_skin: 25
conv+sweat: 176.794
F_t: 298.15
t_skin: 25
conv+sweat: 176.794
F_t: 298.15
t_skin: 25
conv+sweat: 176.794
F_t: 298.15
t_skin: 25
conv+sweat: 176.794
F_t: 298.15
t_skin: 25
conv+sweat: 176.794
F_t: 298.15
t_skin: 25
conv+sweat: 176.794
F_t: 298.15
t_skin: 25
conv+sweat: 176.794
F_t: 298.15
t_skin: 25
conv+sweat: 176.794
F_t: 298.15
t_skin: 25
conv+sweat: 176.794
F_t: 298.15
t_skin: 25
conv+sweat: 176.794
F_t: 298.15
t_skin: 25
conv+sweat: 176.794
F_t: 298.15
t_skin: 25
conv+sweat: 176.794
F_t: 298.15
t_skin: 25
conv+sweat: 176.794
F_t: 298.15
t_skin: 25
conv+sweat: 176.794
F_t: 298.15
t_skin: 25
conv+sweat: 176.794
F_t: 298.15
t_skin: 25
conv+sweat: 176.794
F_t: 298.15
t_skin: 25
conv+sweat: 176.794
F_t: 298.15
t_skin: 25
conv+sweat: 176.794
F_t: 298.15
t_skin: 25
conv+sweat: 176.794
F_t: 298.15
t_skin: 25
conv+sweat: 176.794
F_t: 298.15
t_skin: 25
conv+sweat: 176.794
F_t: 298.15
t_skin: 25
conv+sweat: 176.794
F_t: 298.15
t_skin: 25
conv+sweat: 176.794
F_t: 298.15
t_skin: 25
conv+sweat: 176.794
F_t: 298.15
t_skin: 25
conv+sweat: 176.794
F_t: 298.15
t_skin: 25
conv+sweat: 176.794
F_t: 298.15
t_skin: 25
conv+sweat: 176.794
F_t: 298.15
t_skin: 25
conv+sweat: 176.794
F_t: 298.15
t_skin: 25
conv+sweat: 176.794
F_t: 298.15
t_skin: 25
conv+sweat: 176.794
F_t: 298.15
t_skin: 25
conv+sweat: 176.794
F_t: 298.15
t_skin: 25
conv+sweat: 176.794
F_t: 298.15
t_skin: 25
conv+sweat: 176.794
F_t: 298.15
t_skin: 25
conv+sweat: 176.794
F_t: 298.15
t_skin: 25
conv+sweat: 176.794
F_t: 298.15
t_skin: 25
conv+sweat: 176.794
F_t: 298.15
t_skin: 25
conv+sweat: 176.794
F_t: 298.15
t_skin: 25
conv+sweat: 176.794
F_t: 298.15
t_skin: 25
conv+sweat: 176.794
F_t: 298.15
t_skin: 25
conv+sweat: 176.794
F_t: 298.15
t_skin: 25
conv+sweat: 176.794
F_t: 298.15
t_skin: 25
conv+sweat: 176.794
F_t: 298.15
t_skin: 25
conv+sweat: 176.794
F_t: 298.15
t_skin: 25
conv+sweat: 176.794
F_t: 298.15
t_skin: 25
conv+sweat: 176.794
F_t: 298.15
t_skin: 25
conv+sweat: 176.794
F_t: 298.15
t_skin: 25
conv+sweat: 176.794
F_t: 298.15
t_skin: 25
conv+sweat: 176.794
F_t: 298.15
t_skin: 25
conv+sweat: 176.794
F_t: 298.15
t_skin: 25
conv+sweat: 176.794
F_t: 298.15
t_skin: 25
conv+sweat: 176.794
F_t: 298.15
t_skin: 25
conv+sweat: 176.794
F_t: 298.15
t_skin: 25
conv+sweat: 176.794
F_t: 298.15
t_skin: 25
conv+sweat: 176.794
F_t: 298.15
t_skin: 25
conv+sweat: 176.794
F_t: 298.15
t_skin: 25
conv+sweat: 176.794
F_t: 298.15
t_skin: 25
conv+sweat: 176.794
F_t: 298.15
t_skin: 25
conv+sweat: 176.794
F_t: 298.15
t_skin: 25
conv+sweat: 176.794
F_t: 298.15
t_skin: 25
conv+sweat: 176.794
F_t: 298.15
t_skin: 25
conv+sweat: 176.794
F_t: 298.15
t_skin: 25
conv+sweat: 176.794
F_t: 298.15
t_skin: 25
conv+sweat: 176.794
F_t: 298.15
t_skin: 25
conv+sweat: 176.794
F_t: 298.15
t_skin: 25
conv+sweat: 176.794
F_t: 298.15
t_skin: 25
conv+sweat: 176.794
F_t: 298.15
t_skin: 25
conv+sweat: 176.794
F_t: 298.15
t_skin: 25
conv+sweat: 176.794
F_t: 298.15
t_skin: 25
conv+sweat: 176.794
F_t: 298.15
t_skin: 25
conv+sweat: 176.794
F_t: 298.15
t_skin: 25
conv+sweat: 176.794
F_t: 298.15
t_skin: 25
conv+sweat: 176.794
F_t: 298.15
t_skin: 25
conv+sweat: 176.794
F_t: 298.15
t_skin: 25
conv+sweat: 176.794
F_t: 298.15
t_skin: 25
conv+sweat: 176.794
F_t: 298.15
t_skin: 25
conv+sweat: 176.794
F_t: 298.15
t_skin: 25
conv+sweat: 176.794
F_t: 298.15
t_skin: 25
conv+sweat: 176.794
F_t: 298.15
t_skin: 25
conv+sweat: 176.794
F_t: 298.15
t_skin: 25
conv+sweat: 176.794
F_t: 298.15
t_skin: 25
conv+sweat: 176.794
F_t: 298.15
t_skin: 25
conv+sweat: 176.794
F_t: 298.15
t_skin: 25
conv+sweat: 176.794
F_t: 298.15
t_skin: 25
conv+sweat: 176.794
F_t: 298.15
t_skin: 25
conv+sweat: 176.794
F_t: 298.15
t_skin: 25
conv+sweat: 176.794
F_t: 298.15
t_skin: 25
conv+sweat: 176.794
F_t: 298.15
t_skin: 25
conv+sweat: 176.794
F_t: 298.15
t_skin: 25
conv+sweat: 176.794
F_t: 298.15
t_skin: 25
conv+sweat: 176.794
F_t: 298.15
t_skin: 25
conv+sweat: 176.794
F_t: 298.15
t_skin: 25
conv+sweat: 176.794
F_t: 298.15
t_skin: 25
conv+sweat: 176.794
F_t: 298.15
t_skin: 25
conv+sweat: 176.794
F_t: 298.15
t_skin: 25
conv+sweat: 176.794
F_t: 298.15
t_skin: 25
conv+sweat: 176.794
F_t: 298.15
t_skin: 25
conv+sweat: 176.794
F_t: 298.15
t_skin: 25
conv+sweat: 176.794
F_t: 298.15
t_skin: 25
conv+sweat: 176.794
F_t: 298.15
t_skin: 25
conv+sweat: 176.794
F_t: 298.15
t_skin: 25
conv+sweat: 176.794
F_t: 298.15
t_skin: 25
conv+sweat: 176.794
F_t: 298.15
t_skin: 25
conv+sweat: 176.794
F_t: 298.15
t_skin: 25
conv+sweat: 176.794
F_t: 298.15
t_skin: 25
conv+sweat: 176.794
F_t: 298.15
t_skin: 25
conv+sweat: 176.794
F_t: 298.15
t_skin: 25
conv+sweat: 176.794
F_t: 298.15
t_skin: 25
conv+sweat: 176.794
F_t: 298.15
t_skin: 25
conv+sweat: 176.794
F_t: 298.15
t_skin: 25
conv+sweat: 176.794
F_t: 298.15
t_skin: 25
conv+sweat: 176.794
F_t: 298.15
t_skin: 25
conv+sweat: 176.794
F_t: 298.15
t_skin: 25
conv+sweat: 176.794
F_t: 298.15
t_skin: 25
conv+sweat: 176.794
F_t: 298.15
t_skin: 25
conv+sweat: 176.794
F_t: 298.15
t_skin: 25
conv+sweat: 176.794
F_t: 298.15
t_skin: 25
conv+sweat: 176.794
F_t: 298.15
t_skin: 25
conv+sweat: 176.794
F_t: 298.15
t_skin: 25
conv+sweat: 176.794
F_t: 298.15
t_skin: 25
conv+sweat: 176.794
F_t: 298.15
t_skin: 25
conv+sweat: 176.794
F_t: 298.15
t_skin: 25
conv+sweat: 176.794
F_t: 298.15
t_skin: 25
conv+sweat: 176.794
F_t: 298.15
t_skin: 25
conv+sweat: 176.794
F_t: 298.15
t_skin: 25
conv+sweat: 176.794
F_t: 298.15
t_skin: 25
conv+sweat: 176.794
F_t: 298.15
t_skin: 25
conv+sweat: 176.794
F_t: 298.15
t_skin: 25
conv+sweat: 176.794
F_t: 298.15
t_skin: 25
conv+sweat: 176.794
F_t: 298.15
t_skin: 25
conv+sweat: 176.794
F_t: 298.15
t_skin: 25
conv+sweat: 176.794
F_t: 298.15
t_skin: 25
conv+sweat: 176.794
F_t: 298.15
t_skin: 25
conv+sweat: 176.794
F_t: 298.15
t_skin: 25
conv+sweat: 176.794
F_t: 298.15
t_skin: 25
conv+sweat: 176.794
F_t: 298.15
t_skin: 25
conv+sweat: 176.794
F_t: 298.15
t_skin: 25
conv+sweat: 176.794
F_t: 298.15
t_skin: 25
conv+sweat: 176.794
F_t: 298.15
t_skin: 25
conv+sweat: 176.794
F_t: 298.15
t_skin: 25
conv+sweat: 176.794
F_t: 298.15
t_skin: 25
conv+sweat: 176.794
F_t: 298.15
t_skin: 25
conv+sweat: 176.794
F_t: 298.15
t_skin: 25
conv+sweat: 176.794
F_t: 298.15
t_skin: 25
conv+sweat: 176.794
F_t: 298.15
t_skin: 25
conv+sweat: 176.794
F_t: 298.15
t_skin: 25
conv+sweat: 176.794
F_t: 298.15
t_skin: 25
conv+sweat: 176.794
F_t: 298.15
t_skin: 25
conv+sweat: 176.794
F_t: 298.15
t_skin: 25
conv+sweat: 176.794
F_t: 298.15
t_skin: 25
conv+sweat: 176.794
F_t: 298.15
t_skin: 25
conv+sweat: 176.794
F_t: 298.15
t_skin: 25
conv+sweat: 176.794
F_t: 298.15
t_skin: 25
conv+sweat: 176.794
F_t: 298.15
t_skin: 25
conv+sweat: 176.794
F_t: 298.15
t_skin: 25
conv+sweat: 176.794
F_t: 298.15
t_skin: 25
conv+sweat: 176.794
F_t: 298.15
t_skin: 25
conv+sweat: 176.794
F_t: 298.15
t_skin: 25
conv+sweat: 176.794
F_t: 298.15
t_skin: 25
conv+sweat: 176.794
F_t: 298.15
t_skin: 25
conv+sweat: 176.794
F_t: 298.15
t_skin: 25
conv+sweat: 176.794
F_t: 298.15
t_skin: 25
conv+sweat: 176.794
F_t: 298.15
t_skin: 25
conv+sweat: 176.794
F_t: 298.15
t_skin: 25
conv+sweat: 176.794
F_t: 298.15
t_skin: 25
conv+sweat: 176.794
F_t: 298.15
t_skin: 25
conv+sweat: 176.794
F_t: 298.15
t_skin: 25
conv+sweat: 176.794
F_t: 298.15
t_skin: 25
conv+sweat: 176.794
F_t: 298.15
t_skin: 25
conv+sweat: 176.794
F_t: 298.15
t_skin: 25
conv+sweat: 176.794
F_t: 298.15
t_skin: 25
conv+sweat: 176.794
F_t: 298.15
t_skin: 25
conv+sweat: 176.794
F_t: 298.15
t_skin: 25
conv+sweat: 176.794
F_t: 298.15
t_skin: 25
conv+sweat: 176.794
F_t: 298.15
t_skin: 25
conv+sweat: 176.794
F_t: 298.15
t_skin: 25
conv+sweat: 176.794
F_t: 298.15
t_skin: 25
conv+sweat: 176.794
F_t: 298.15
t_skin: 25
conv+sweat: 176.794
F_t: 298.15
t_skin: 25
conv+sweat: 176.794
F_t: 298.15
t_skin: 25
conv+sweat: 176.794
F_t: 298.15
t_skin: 25
conv+sweat: 176.794
F_t: 298.15
t_skin: 25
conv+sweat: 176.794
F_t: 298.15
t_skin: 25
conv+sweat: 176.794
F_t: 298.15
t_skin: 25
conv+sweat: 176.794
F_t: 298.15
t_skin: 25
conv+sweat: 176.794
F_t: 298.15
t_skin: 25
conv+sweat: 176.794
F_t: 298.15
t_skin: 25
conv+sweat: 176.794
F_t: 298.15
t_skin: 25
conv+sweat: 176.794
F_t: 298.15
t_skin: 25
conv+sweat: 176.794
F_t: 298.15
t_skin: 25
conv+sweat: 176.794
F_t: 298.15
t_skin: 25
conv+sweat: 176.794
F_t: 298.15
t_skin: 25
conv+sweat: 176.794
F_t: 298.15
t_skin: 25
conv+sweat: 176.794
F_t: 298.15
t_skin: 25
conv+sweat: 176.794
F_t: 298.15
t_skin: 25
conv+sweat: 176.794
F_t: 298.15
t_skin: 25
conv+sweat: 176.794
F_t: 298.15
t_skin: 25
conv+sweat: 176.794
F_t: 298.15
t_skin: 25
conv+sweat: 176.794
F_t: 298.15
t_skin: 25
conv+sweat: 176.794
F_t: 298.15
t_skin: 25
conv+sweat: 176.794
F_t: 298.15
t_skin: 25
conv+sweat: 176.794
F_t: 298.15
t_skin: 25
conv+sweat: 176.794
F_t: 298.15
t_skin: 25
conv+sweat: 176.794
F_t: 298.15
t_skin: 25
conv+sweat: 176.794
F_t: 298.15
t_skin: 25
conv+sweat: 176.794
F_t: 298.15
t_skin: 25
conv+sweat: 176.794
F_t: 298.15
t_skin: 25
conv+sweat: 176.794
F_t: 298.15
t_skin: 25
conv+sweat: 176.794
F_t: 298.15
t_skin: 25
conv+sweat: 176.794
F_t: 298.15
t_skin: 25
conv+sweat: 176.794
F_t: 298.15
t_skin: 25
conv+sweat: 176.794
F_t: 298.15
t_skin: 25
conv+sweat: 176.794
F_t: 298.15
t_skin: 25
conv+sweat: 176.794
F_t: 298.15
t_skin: 25
conv+sweat: 176.794
F_t: 298.15
t_skin: 25
conv+sweat: 176.794
F_t: 298.15
t_skin: 25
conv+sweat: 176.794
F_t: 298.15
t_skin: 25
conv+sweat: 176.794
F_t: 298.15
t_skin: 25
conv+sweat: 176.794
F_t: 298.15
t_skin: 25
conv+sweat: 176.794
F_t: 298.15
t_skin: 25
conv+sweat: 176.794
F_t: 298.15
t_skin: 25
conv+sweat: 176.794
F_t: 298.15
t_skin: 25
conv+sweat: 176.794
F_t: 298.15
t_skin: 25
conv+sweat: 176.794
F_t: 298.15
t_skin: 25
conv+sweat: 176.794
F_t: 298.15
t_skin: 25
conv+sweat: 176.794
F_t: 298.15
t_skin: 25
conv+sweat: 176.794
F_t: 298.15
t_skin: 25
conv+sweat: 176.794
F_t: 298.15
t_skin: 25
conv+sweat: 176.794
F_t: 298.15
t_skin: 25
conv+sweat: 176.794
F_t: 298.15
t_skin: 25
conv+sweat: 176.794
F_t: 298.15
t_skin: 25
conv+sweat: 176.794
F_t: 298.15
t_skin: 25
conv+sweat: 176.794
F_t: 298.15
t_skin: 25
conv+sweat: 176.794
F_t: 298.15
t_skin: 25
conv+sweat: 176.794
F_t: 298.15
t_skin: 25
conv+sweat: 176.794
F_t: 298.15
t_skin: 25
conv+sweat: 176.794
F_t: 298.15
t_skin: 25
conv+sweat: 176.794
F_t: 298.15
t_skin: 25
conv+sweat: 176.794
F_t: 298.15
t_skin: 25
conv+sweat: 176.794
F_t: 298.15
t_skin: 25
conv+sweat: 176.794
F_t: 298.15
t_skin: 25
conv+sweat: 176.794
F_t: 298.15
t_skin: 25
conv+sweat: 176.794
F_t: 298.15
t_skin: 25
conv+sweat: 176.794
F_t: 298.15
t_skin: 25
conv+sweat: 176.794
F_t: 298.15
t_skin: 25
conv+sweat: 176.794
F_t: 298.15
t_skin: 25
conv+sweat: 176.794
F_t: 298.15
t_skin: 25
conv+sweat: 176.794
F_t: 298.15
t_skin: 25
conv+sweat: 176.794
F_t: 298.15
t_skin: 25
conv+sweat: 176.794
F_t: 298.15
t_skin: 25
conv+sweat: 176.794
F_t: 298.15
t_skin: 25
conv+sweat: 176.794
F_t: 298.15
t_skin: 25
conv+sweat: 176.794
F_t: 298.15
t_skin: 25
conv+sweat: 176.794
F_t: 298.15
t_skin: 25
conv+sweat: 176.794
F_t: 298.15
t_skin: 25
conv+sweat: 176.794
F_t: 298.15
t_skin: 25
conv+sweat: 176.794
F_t: 298.15
t_skin: 25
conv+sweat: 176.794
F_t: 298.15
t_skin: 25
conv+sweat: 176.794
F_t: 298.15
t_skin: 25
conv+sweat: 176.794
F_t: 298.15
t_skin: 25
conv+sweat: 176.794
F_t: 298.15
t_skin: 25
conv+sweat: 176.794
F_t: 298.15
t_skin: 25
conv+sweat: 176.794
F_t: 298.15
t_skin: 25
conv+sweat: 176.794
F_t: 298.15
t_skin: 25
conv+sweat: 176.794
F_t: 298.15
t_skin: 25
conv+sweat: 176.794
F_t: 298.15
t_skin: 25
conv+sweat: 176.794
F_t: 298.15
t_skin: 25
conv+sweat: 176.794
F_t: 298.15
t_skin: 25
conv+sweat: 176.794
F_t: 298.15
t_skin: 25
conv+sweat: 176.794
F_t: 298.15
t_skin: 25
conv+sweat: 176.794
F_t: 298.15
t_skin: 25
conv+sweat: 176.794
F_t: 298.15
t_skin: 25
conv+sweat: 176.794
F_t: 298.15
t_skin: 25
conv+sweat: 176.794
F_t: 298.15
t_skin: 25
conv+sweat: 176.794
F_t: 298.15
t_skin: 25
conv+sweat: 176.794
F_t: 298.15
t_skin: 25
conv+sweat: 176.794
F_t: 298.15
t_skin: 25
conv+sweat: 176.794
F_t: 298.15
t_skin: 25
conv+sweat: 176.794
F_t: 298.15
t_skin: 25
conv+sweat: 176.794
F_t: 298.15
t_skin: 25
conv+sweat: 176.794
F_t: 298.15
t_skin: 25
conv+sweat: 176.794
F_t: 298.15
t_skin: 25
conv+sweat: 176.794
F_t: 298.15
t_skin: 25
conv+sweat: 176.794
F_t: 298.15
t_skin: 25
conv+sweat: 176.794
F_t: 298.15
t_skin: 25
conv+sweat: 176.794
F_t: 298.15
t_skin: 25
conv+sweat: 176.794
F_t: 298.15
t_skin: 25
conv+sweat: 176.794
F_t: 298.15
t_skin: 25
conv+sweat: 176.794
F_t: 298.15
t_skin: 25
conv+sweat: 176.794
F_t: 298.15
t_skin: 25
conv+sweat: 176.794
F_t: 298.15
t_skin: 25
conv+sweat: 176.794
F_t: 298.15
t_skin: 25
conv+sweat: 176.794
F_t: 298.15
t_skin: 25
conv+sweat: 176.794
F_t: 298.15
t_skin: 25
conv+sweat: 176.794
F_t: 298.15
t_skin: 25
conv+sweat: 176.794
F_t: 298.15
t_skin: 25
conv+sweat: 176.794
F_t: 298.15
t_skin: 25
conv+sweat: 176.794
F_t: 298.15
t_skin: 25
conv+sweat: 176.794
F_t: 298.15
t_skin: 25
conv+sweat: 176.794
F_t: 298.15
t_skin: 25
conv+sweat: 176.794
F_t: 298.15
t_skin: 25
conv+sweat: 176.794
F_t: 298.15
t_skin: 25
conv+sweat: 176.794
F_t: 298.15
t_skin: 25
conv+sweat: 176.794
F_t: 298.15
t_skin: 25
conv+sweat: 176.794
F_t: 298.15
t_skin: 25
conv+sweat: 176.794
F_t: 298.15
t_skin: 25
conv+sweat: 176.794
F_t: 298.15
t_skin: 25
conv+sweat: 176.794
F_t: 298.15
t_skin: 25
conv+sweat: 176.794
F_t: 298.15
t_skin: 25
conv+sweat: 176.794
F_t: 298.15
t_skin: 25
conv+sweat: 176.794
F_t: 298.15
t_skin: 25
conv+sweat: 176.794
F_t: 298.15
t_skin: 25
conv+sweat: 176.794
F_t: 298.15
t_skin: 25
conv+sweat: 176.794
F_t: 298.15
t_skin: 25
conv+sweat: 176.794
F_t: 298.15
t_skin: 25
conv+sweat: 176.794
F_t: 298.15
t_skin: 25
conv+sweat: 176.794
F_t: 298.15
t_skin: 25
conv+sweat: 176.794
F_t: 298.15
t_skin: 25
conv+sweat: 176.794
F_t: 298.15
t_skin: 25
conv+sweat: 176.794
F_t: 298.15
t_skin: 25
conv+sweat: 176.794
F_t: 298.15
t_skin: 25
conv+sweat: 176.794
F_t: 298.15
t_skin: 25
conv+sweat: 176.794
F_t: 298.15
t_skin: 25
conv+sweat: 176.794
F_t: 298.15
t_skin: 25
conv+sweat: 176.794
F_t: 298.15
t_skin: 25
conv+sweat: 176.794
F_t: 298.15
t_skin: 25
conv+sweat: 176.794
F_t: 298.15
t_skin: 25
conv+sweat: 176.794
F_t: 298.15
t_skin: 25
conv+sweat: 176.794
F_t: 298.15
t_skin: 25
conv+sweat: 176.794
F_t: 298.15
t_skin: 25
conv+sweat: 176.794
F_t: 298.15
t_skin: 25
conv+sweat: 176.794
F_t: 298.15
t_skin: 25
conv+sweat: 176.794
F_t: 298.15
t_skin: 25
conv+sweat: 176.794
F_t: 298.15
t_skin: 25
conv+sweat: 176.794
F_t: 298.15
t_skin: 25
conv+sweat: 176.794
F_t: 298.15
t_skin: 25
conv+sweat: 176.794
F_t: 298.15
t_skin: 25
conv+sweat: 176.794
F_t: 298.15
t_skin: 25
conv+sweat: 176.794
F_t: 298.15
t_skin: 25
conv+sweat: 176.794
F_t: 298.15
t_skin: 25
conv+sweat: 176.794
F_t: 298.15
t_skin: 25
conv+sweat: 176.794
F_t: 298.15
t_skin: 25
conv+sweat: 176.794
F_t: 298.15
t_skin: 25
conv+sweat: 176.794
F_t: 298.15
t_skin: 25
conv+sweat: 176.794
F_t: 298.15
t_skin: 25
conv+sweat: 176.794
F_t: 298.15
t_skin: 25
conv+sweat: 176.794
F_t: 298.15
t_skin: 25
conv+sweat: 176.794
F_t: 298.15
t_skin: 25
conv+sweat: 176.794
F_t: 298.15
t_skin: 25
conv+sweat: 176.794
F_t: 298.15
t_skin: 25
conv+sweat: 176.794
F_t: 298.15
t_skin: 25
conv+sweat: 176.794
F_t: 298.15
t_skin: 25
conv+sweat: 176.794
F_t: 298.15
t_skin: 25
conv+sweat: 176.794
F_t: 298.15
t_skin: 25
conv+sweat: 176.794
F_t: 298.15
t_skin: 25
conv+sweat: 176.794
F_t: 298.15
t_skin: 25
conv+sweat: 176.794
F_t: 298.15
t_skin: 25
conv+sweat: 176.794
F_t: 298.15
t_skin: 25
conv+sweat: 176.794
F_t: 298.15
t_skin: 25
conv+sweat: 176.794
F_t: 298.15
t_skin: 25
conv+sweat: 176.794
F_t: 298.15
t_skin: 25
conv+sweat: 176.794
F_t: 298.15
t_skin: 25
conv+sweat: 176.794
F_t: 298.15
t_skin: 25
conv+sweat: 176.794
F_t: 298.15
t_skin: 25
conv+sweat: 176.794
F_t: 298.15
t_skin: 25
conv+sweat: 176.794
F_t: 298.15
t_skin: 25
conv+sweat: 176.794
F_t: 298.15
t_skin: 25
conv+sweat: 176.794
F_t: 298.15
t_skin: 25
conv+sweat: 176.794
F_t: 298.15
t_skin: 25
conv+sweat: 176.794
F_t: 298.15
t_skin: 25
conv+sweat: 176.794
F_t: 298.15
t_skin: 25
conv+sweat: 176.794
F_t: 298.15
t_skin: 25
conv+sweat: 176.794
F_t: 298.15
t_skin: 25
conv+sweat: 176.794
F_t: 298.15
t_skin: 25
conv+sweat: 176.794
F_t: 298.15
t_skin: 25
conv+sweat: 176.794
F_t: 298.15
t_skin: 25
conv+sweat: 176.794
F_t: 298.15
t_skin: 25
conv+sweat: 176.794
F_t: 298.15
t_skin: 25
conv+sweat: 176.794
F_t: 298.15
t_skin: 25
conv+sweat: 176.794
F_t: 298.15
t_skin: 25
conv+sweat: 176.794
F_t: 298.15
t_skin: 25
conv+sweat: 176.794
F_t: 298.15
t_skin: 25
conv+sweat: 176.794
F_t: 298.15
t_skin: 25
conv+sweat: 176.794
F_t: 298.15
t_skin: 25
conv+sweat: 176.794
F_t: 298.15
t_skin: 25
conv+sweat: 176.794
F_t: 298.15
t_skin: 25
conv+sweat: 176.794
F_t: 298.15
t_skin: 25
conv+sweat: 176.794
F_t: 298.15
t_skin: 25
conv+sweat: 176.794
F_t: 298.15
t_skin: 25
conv+sweat: 176.794
F_t: 298.15
t_skin: 25
conv+sweat: 176.794
F_t: 298.15
t_skin: 25
conv+sweat: 176.794
F_t: 298.15
t_skin: 25
conv+sweat: 176.794
F_t: 298.15
t_skin: 25
conv+sweat: 176.794
F_t: 298.15
t_skin: 25
conv+sweat: 176.794
F_t: 298.15
t_skin: 25
conv+sweat: 176.794
F_t: 298.15
t_skin: 25
conv+sweat: 176.794
F_t: 298.15
t_skin: 25
conv+sweat: 176.794
F_t: 298.15
t_skin: 25
conv+sweat: 176.794
F_t: 298.15
t_skin: 25
conv+sweat: 176.794
F_t: 298.15
t_skin: 25
conv+sweat: 176.794
F_t: 298.15
t_skin: 25
conv+sweat: 176.794
F_t: 298.15
t_skin: 25
conv+sweat: 176.794
F_t: 298.15
t_skin: 25
conv+sweat: 176.794
F_t: 298.15
t_skin: 25
conv+sweat: 176.794
F_t: 298.15
t_skin: 25
conv+sweat: 176.794
F_t: 298.15
t_skin: 25
conv+sweat: 176.794
F_t: 298.15
t_skin: 25
conv+sweat: 176.794
F_t: 298.15
t_skin: 25
conv+sweat: 176.794
F_t: 298.15
t_skin: 25
conv+sweat: 176.794
F_t: 298.15
t_skin: 25
conv+sweat: 176.794
F_t: 298.15
t_skin: 25
conv+sweat: 176.794
F_t: 298.15
t_skin: 25
conv+sweat: 176.794
F_t: 298.15
t_skin: 25
conv+sweat: 176.794
F_t: 298.15
t_skin: 25
conv+sweat: 176.794
F_t: 298.15
t_skin: 25
conv+sweat: 176.794
F_t: 298.15
t_skin: 25
conv+sweat: 176.794
F_t: 298.15
t_skin: 25
conv+sweat: 176.794
F_t: 298.15
t_skin: 25
conv+sweat: 176.794
F_t: 298.15
t_skin: 25
conv+sweat: 176.794
F_t: 298.15
t_skin: 25
conv+sweat: 176.794
F_t: 298.15
t_skin: 25
conv+sweat: 176.794
F_t: 298.15
t_skin: 25
conv+sweat: 176.794
F_t: 298.15
t_skin: 25
conv+sweat: 176.794
F_t: 298.15
t_skin: 25
conv+sweat: 176.794
F_t: 298.15
t_skin: 25
conv+sweat: 176.794
F_t: 298.15
t_skin: 25
conv+sweat: 176.794
F_t: 298.15
t_skin: 25
conv+sweat: 176.794
F_t: 298.15
t_skin: 25
conv+sweat: 176.794
F_t: 298.15
t_skin: 25
conv+sweat: 176.794
F_t: 298.15
t_skin: 25
conv+sweat: 176.794
F_t: 298.15
t_skin: 25
conv+sweat: 176.794
F_t: 298.15
t_skin: 25
conv+sweat: 176.794
F_t: 298.15
t_skin: 25
conv+sweat: 176.794
F_t: 298.15
t_skin: 25
conv+sweat: 176.794
F_t: 298.15
t_skin: 25
conv+sweat: 176.794
F_t: 298.15
t_skin: 25
conv+sweat: 176.794
F_t: 298.15
t_skin: 25
conv+sweat: 176.794
F_t: 298.15
t_skin: 25
conv+sweat: 176.794
F_t: 298.15
t_skin: 25
conv+sweat: 176.794
F_t: 298.15
t_skin: 25
conv+sweat: 176.794
F_t: 298.15
t_skin: 25
conv+sweat: 176.794
F_t: 298.15
t_skin: 25
conv+sweat: 176.794
F_t: 298.15
t_skin: 25
conv+sweat: 176.794
F_t: 298.15
t_skin: 25
conv+sweat: 176.794
F_t: 298.15
t_skin: 25
conv+sweat: 176.794
F_t: 298.15
t_skin: 25
conv+sweat: 176.794
F_t: 298.15
t_skin: 25
conv+sweat: 176.794
F_t: 298.15
t_skin: 25
conv+sweat: 176.794
F_t: 298.15
t_skin: 25
conv+sweat: 176.794
F_t: 298.15
t_skin: 25
conv+sweat: 176.794
F_t: 298.15
t_skin: 25
conv+sweat: 176.794
F_t: 298.15
t_skin: 25
conv+sweat: 176.794
F_t: 298.15
t_skin: 25
conv+sweat: 176.794
F_t: 298.15
t_skin: 25
conv+sweat: 176.794
F_t: 298.15
t_skin: 25
conv+sweat: 176.794
F_t: 298.15
t_skin: 25
conv+sweat: 176.794
F_t: 298.15
t_skin: 25
conv+sweat: 176.794
F_t: 298.15
t_skin: 25
conv+sweat: 176.794
F_t: 298.15
t_skin: 25
conv+sweat: 176.794
F_t: 298.15
t_skin: 25
conv+sweat: 176.794
F_t: 298.15
t_skin: 25
conv+sweat: 176.794
F_t: 298.15
t_skin: 25
conv+sweat: 176.794
F_t: 298.15
t_skin: 25
conv+sweat: 176.794
F_t: 298.15
t_skin: 25
conv+sweat: 176.794
F_t: 298.15
t_skin: 25
conv+sweat: 176.794
F_t: 298.15
t_skin: 25
conv+sweat: 176.794
F_t: 298.15
t_skin: 25
conv+sweat: 176.794
F_t: 298.15
t_skin: 25
conv+sweat: 176.794
F_t: 298.15
t_skin: 25
conv+sweat: 176.794
F_t: 298.15
t_skin: 25
conv+sweat: 176.794
F_t: 298.15
t_skin: 25
conv+sweat: 176.794
F_t: 298.15
t_skin: 25
conv+sweat: 176.794
F_t: 298.15
t_skin: 25
conv+sweat: 176.794
F_t: 298.15
t_skin: 25
conv+sweat: 176.794
F_t: 298.15
t_skin: 25
conv+sweat: 176.794
F_t: 298.15
t_skin: 25
conv+sweat: 176.794
F_t: 298.15
t_skin: 25
conv+sweat: 176.794
F_t: 298.15
t_skin: 25
conv+sweat: 176.794
F_t: 298.15
t_skin: 25
conv+sweat: 176.794
F_t: 298.15
t_skin: 25
conv+sweat: 176.794
F_t: 298.15
t_skin: 25
conv+sweat: 176.794
F_t: 298.15
t_skin: 25
conv+sweat: 176.794
F_t: 298.15
t_skin: 25
conv+sweat: 176.794
F_t: 298.15
t_skin: 25
conv+sweat: 176.794
F_t: 298.15
t_skin: 25
conv+sweat: 176.794
F_t: 298.15
t_skin: 25
conv+sweat: 176.794
F_t: 298.15
t_skin: 25
conv+sweat: 176.794
F_t: 298.15
t_skin: 25
conv+sweat: 176.794
F_t: 298.15
t_skin: 25
conv+sweat: 176.794
F_t: 298.15
t_skin: 25
conv+sweat: 176.794
F_t: 298.15
t_skin: 25
conv+sweat: 176.794
F_t: 298.15
t_skin: 25
conv+sweat: 176.794
F_t: 298.15
t_skin: 25
conv+sweat: 176.794
F_t: 298.15
t_skin: 25
conv+sweat: 176.794
F_t: 298.15
t_skin: 25
conv+sweat: 176.794
F_t: 298.15
t_skin: 25
conv+sweat: 176.794
F_t: 298.15
t_skin: 25
conv+sweat: 176.794
F_t: 298.15
t_skin: 25
conv+sweat: 176.794
F_t: 298.15
t_skin: 25
conv+sweat: 176.794
F_t: 298.15
t_skin: 25
conv+sweat: 176.794
F_t: 298.15
t_skin: 25
conv+sweat: 176.794
F_t: 298.15
t_skin: 25
conv+sweat: 176.794
F_t: 298.15
t_skin: 25
conv+sweat: 176.794
F_t: 298.15
t_skin: 25
conv+sweat: 176.794
F_t: 298.15
t_skin: 25
conv+sweat: 176.794
F_t: 298.15
t_skin: 25
conv+sweat: 176.794
F_t: 298.15
t_skin: 25
conv+sweat: 176.794
F_t: 298.15
t_skin: 25
conv+sweat: 176.794
F_t: 298.15
t_skin: 25
conv+sweat: 176.794
F_t: 298.15
t_skin: 25
conv+sweat: 176.794
F_t: 298.15
t_skin: 25
conv+sweat: 176.794
F_t: 298.15
t_skin: 25
conv+sweat: 176.794
F_t: 298.15
t_skin: 25
conv+sweat: 176.794
F_t: 298.15
t_skin: 25
conv+sweat: 176.794
F_t: 298.15
t_skin: 25
conv+sweat: 176.794
F_t: 298.15
t_skin: 25
conv+sweat: 176.794
F_t: 298.15
t_skin: 25
conv+sweat: 176.794
F_t: 298.15
t_skin: 25
conv+sweat: 176.794
F_t: 298.15
t_skin: 25
conv+sweat: 176.794
F_t: 298.15
t_skin: 25
conv+sweat: 176.794
F_t: 298.15
t_skin: 25
conv+sweat: 176.794
F_t: 298.15
t_skin: 25
conv+sweat: 176.794
F_t: 298.15
t_skin: 25
conv+sweat: 176.794
F_t: 298.15
t_skin: 25
conv+sweat: 176.794
F_t: 298.15
t_skin: 25
conv+sweat: 176.794
F_t: 298.15
t_skin: 25
conv+sweat: 176.794
F_t: 298.15
t_skin: 25
conv+sweat: 176.794
F_t: 298.15
t_skin: 25
conv+sweat: 176.794
F_t: 298.15
t_skin: 25
conv+sweat: 176.794
F_t: 298.15
t_skin: 25
conv+sweat: 176.794
F_t: 298.15
t_skin: 25
conv+sweat: 176.794
F_t: 298.15
t_skin: 25
conv+sweat: 176.794
F_t: 298.15
t_skin: 25
conv+sweat: 176.794
F_t: 298.15
t_skin: 25
conv+sweat: 176.794
F_t: 298.15
t_skin: 25
conv+sweat: 176.794
F_t: 298.15
t_skin: 25
conv+sweat: 176.794
F_t: 298.15
t_skin: 25
conv+sweat: 176.794
F_t: 298.15
t_skin: 25
conv+sweat: 176.794
F_t: 298.15
t_skin: 25
conv+sweat: 176.794
F_t: 298.15
t_skin: 25
conv+sweat: 176.794
F_t: 298.15
t_skin: 25
conv+sweat: 176.794
F_t: 298.15
t_skin: 25
conv+sweat: 176.794
F_t: 298.15
t_skin: 25
conv+sweat: 176.794
F_t: 298.15
t_skin: 25
conv+sweat: 176.794
F_t: 298.15
t_skin: 25
conv+sweat: 176.794
F_t: 298.15
t_skin: 25
conv+sweat: 176.794
F_t: 298.15
t_skin: 25
conv+sweat: 176.794
F_t: 298.15
t_skin: 25
conv+sweat: 176.794
F_t: 298.15
t_skin: 25
conv+sweat: 176.794
F_t: 298.15
t_skin: 25
conv+sweat: 176.794
F_t: 298.15
t_skin: 25
conv+sweat: 176.794
F_t: 298.15
t_skin: 25
conv+sweat: 176.794
F_t: 298.15
t_skin: 25
conv+sweat: 176.794
F_t: 298.15
t_skin: 25
conv+sweat: 176.794
F_t: 298.15
t_skin: 25
conv+sweat: 176.794
F_t: 298.15
t_skin: 25
conv+sweat: 176.794
F_t: 298.15
t_skin: 25
conv+sweat: 176.794
F_t: 298.15
t_skin: 25
conv+sweat: 176.794
F_t: 298.15
t_skin: 25
conv+sweat: 176.794
F_t: 298.15
t_skin: 25
conv+sweat: 176.794
F_t: 298.15
t_skin: 25
conv+sweat: 176.794
F_t: 298.15
t_skin: 25
conv+sweat: 176.794
F_t: 298.15
t_skin: 25
conv+sweat: 176.794
F_t: 298.15
t_skin: 25
conv+sweat: 176.794
F_t: 298.15
t_skin: 25
conv+sweat: 176.794
F_t: 298.15
t_skin: 25
conv+sweat: 176.794
F_t: 298.15
t_skin: 25
conv+sweat: 176.794
F_t: 298.15
t_skin: 25
conv+sweat: 176.794
F_t: 298.15
t_skin: 25
conv+sweat: 176.794
F_t: 298.15
t_skin: 25
conv+sweat: 176.794
F_t: 298.15
t_skin: 25
conv+sweat: 176.794
F_t: 298.15
t_skin: 25
conv+sweat: 176.794
F_t: 298.15
t_skin: 25
conv+sweat: 176.794
F_t: 298.15
t_skin: 25
conv+sweat: 176.794
F_t: 298.15
t_skin: 25
conv+sweat: 176.794
F_t: 298.15
t_skin: 25
conv+sweat: 176.794
F_t: 298.15
t_skin: 25
conv+sweat: 176.794
F_t: 298.15
t_skin: 25
conv+sweat: 176.794
F_t: 298.15
t_skin: 25
conv+sweat: 176.794
F_t: 298.15
t_skin: 25
conv+sweat: 176.794
F_t: 298.15
t_skin: 25
conv+sweat: 176.794
F_t: 298.15
t_skin: 25
conv+sweat: 176.794
F_t: 298.15
t_skin: 25
conv+sweat: 176.794
F_t: 298.15
t_skin: 25
conv+sweat: 176.794
F_t: 298.15
t_skin: 25
conv+sweat: 176.794
F_t: 298.15
t_skin: 25
conv+sweat: 176.794
F_t: 298.15
t_skin: 25
conv+sweat: 176.794
F_t: 298.15
t_skin: 25
conv+sweat: 176.794
F_t: 298.15
t_skin: 25
conv+sweat: 176.794
F_t: 298.15
t_skin: 25
conv+sweat: 176.794
F_t: 298.15
t_skin: 25
conv+sweat: 176.794
F_t: 298.15
t_skin: 25
conv+sweat: 176.794
F_t: 298.15
t_skin: 25
conv+sweat: 176.794
F_t: 298.15
t_skin: 25
conv+sweat: 176.794
F_t: 298.15
t_skin: 25
conv+sweat: 176.794
F_t: 298.15
t_skin: 25
conv+sweat: 176.794
F_t: 298.15
t_skin: 25
conv+sweat: 176.794
F_t: 298.15
t_skin: 25
conv+sweat: 176.794
F_t: 298.15
t_skin: 25
conv+sweat: 176.794
F_t: 298.15
t_skin: 25
conv+sweat: 176.794
F_t: 298.15
t_skin: 25
conv+sweat: 176.794
F_t: 298.15
t_skin: 25
conv+sweat: 176.794
F_t: 298.15
t_skin: 25
conv+sweat: 176.794
F_t: 298.15
t_skin: 25
conv+sweat: 176.794
F_t: 298.15
t_skin: 25
conv+sweat: 176.794
F_t: 298.15
t_skin: 25
conv+sweat: 176.794
F_t: 298.15
t_skin: 25
conv+sweat: 176.794
F_t: 298.15
t_skin: 25
conv+sweat: 176.794
F_t: 298.15
t_skin: 25
conv+sweat: 176.794
F_t: 298.15
t_skin: 25
conv+sweat: 176.794
F_t: 298.15
t_skin: 25
conv+sweat: 176.794
F_t: 298.15
t_skin: 25
conv+sweat: 176.794
F_t: 298.15
t_skin: 25
conv+sweat: 176.794
F_t: 298.15
t_skin: 25
conv+sweat: 176.794
F_t: 298.15
t_skin: 25
conv+sweat: 176.794
F_t: 298.15
t_skin: 25
conv+sweat: 176.794
F_t: 298.15
t_skin: 25
conv+sweat: 176.794
F_t: 298.15
t_skin: 25
conv+sweat: 176.794
F_t: 298.15
t_skin: 25
conv+sweat: 176.794
F_t: 298.15
t_skin: 25
conv+sweat: 176.794
F_t: 298.15
t_skin: 25
conv+sweat: 176.794
F_t: 298.15
t_skin: 25
conv+sweat: 176.794
F_t: 298.15
t_skin: 25
conv+sweat: 176.794
F_t: 298.15
t_skin: 25
conv+sweat: 176.794
F_t: 298.15
t_skin: 25
conv+sweat: 176.794
F_t: 298.15
t_skin: 25
conv+sweat: 176.794
F_t: 298.15
t_skin: 25
conv+sweat: 176.794
F_t: 298.15
t_skin: 25
conv+sweat: 176.794
F_t: 298.15
t_skin: 25
conv+sweat: 176.794
F_t: 298.15
t_skin: 25
conv+sweat: 176.794
F_t: 298.15
t_skin: 25
conv+sweat: 176.794
F_t: 298.15
t_skin: 25
conv+sweat: 176.794
F_t: 298.15
t_skin: 25
conv+sweat: 176.794
F_t: 298.15
t_skin: 25
conv+sweat: 176.794
F_t: 298.15
t_skin: 25
conv+sweat: 176.794
F_t: 298.15
t_skin: 25
conv+sweat: 176.794
F_t: 298.15
t_skin: 25
conv+sweat: 176.794
F_t: 298.15
t_skin: 25
conv+sweat: 176.794
F_t: 298.15
t_skin: 25
conv+sweat: 176.794
F_t: 298.15
t_skin: 25
conv+sweat: 176.794
F_t: 298.15
t_skin: 25
conv+sweat: 176.794
F_t: 298.15
t_skin: 25
conv+sweat: 176.794
F_t: 298.15
t_skin: 25
conv+sweat: 176.794
F_t: 298.15
t_skin: 25
conv+sweat: 176.794
F_t: 298.15
t_skin: 25
conv+sweat: 176.794
F_t: 298.15
t_skin: 25
conv+sweat: 176.794
F_t: 298.15
t_skin: 25
conv+sweat: 176.794
F_t: 298.15
t_skin: 25
conv+sweat: 176.794
F_t: 298.15
t_skin: 25
conv+sweat: 176.794
F_t: 298.15
t_skin: 25
conv+sweat: 176.794
F_t: 298.15
t_skin: 25
conv+sweat: 176.794
F_t: 298.15
t_skin: 25
conv+sweat: 176.794
F_t: 298.15
t_skin: 25
conv+sweat: 176.794
F_t: 298.15
t_skin: 25
conv+sweat: 176.794
F_t: 298.15
t_skin: 25
conv+sweat: 176.794
F_t: 298.15
t_skin: 25
conv+sweat: 176.794
F_t: 298.15
t_skin: 25
conv+sweat: 176.794
F_t: 298.15
t_skin: 25
conv+sweat: 176.794
F_t: 298.15
t_skin: 25
conv+sweat: 176.794
F_t: 298.15
t_skin: 25
conv+sweat: 176.794
F_t: 298.15
t_skin: 25
conv+sweat: 176.794
F_t: 298.15
t_skin: 25
conv+sweat: 176.794
F_t: 298.15
t_skin: 25
conv+sweat: 176.794
F_t: 298.15
t_skin: 25
conv+sweat: 176.794
F_t: 298.15
t_skin: 25
conv+sweat: 176.794
F_t: 298.15
t_skin: 25
conv+sweat: 176.794
F_t: 298.15
t_skin: 25
conv+sweat: 176.794
F_t: 298.15
t_skin: 25
conv+sweat: 176.794
F_t: 298.15
t_skin: 25
conv+sweat: 176.794
F_t: 298.15
t_skin: 25
conv+sweat: 176.794
F_t: 298.15
t_skin: 25
conv+sweat: 176.794
F_t: 298.15
t_skin: 25
conv+sweat: 176.794
F_t: 298.15
t_skin: 25
conv+sweat: 176.794
F_t: 298.15
t_skin: 25
conv+sweat: 176.794
F_t: 298.15
t_skin: 25
conv+sweat: 176.794
F_t: 298.15
t_skin: 25
conv+sweat: 176.794
F_t: 298.15
t_skin: 25
conv+sweat: 176.794
F_t: 298.15
t_skin: 25
conv+sweat: 176.794
F_t: 298.15
t_skin: 25
conv+sweat: 176.794
F_t: 298.15
t_skin: 25
conv+sweat: 176.794
F_t: 298.15
t_skin: 25
conv+sweat: 176.794
F_t: 298.15
t_skin: 25
conv+sweat: 176.794
F_t: 298.15
t_skin: 25
conv+sweat: 176.794
F_t: 298.15
t_skin: 25
conv+sweat: 176.794
F_t: 298.15
t_skin: 25
conv+sweat: 176.794
F_t: 298.15
t_skin: 25
conv+sweat: 176.794
F_t: 298.15
t_skin: 25
conv+sweat: 176.794
F_t: 298.15
t_skin: 25
conv+sweat: 176.794
F_t: 298.15
t_skin: 25
conv+sweat: 176.794
F_t: 298.15
t_skin: 25
conv+sweat: 176.794
F_t: 298.15
t_skin: 25
conv+sweat: 176.794
F_t: 298.15
t_skin: 25
conv+sweat: 176.794
F_t: 298.15
t_skin: 25
conv+sweat: 176.794
F_t: 298.15
t_skin: 25
conv+sweat: 176.794
F_t: 298.15
t_skin: 25
conv+sweat: 176.794
F_t: 298.15
t_skin: 25
conv+sweat: 176.794
F_t: 298.15
t_skin: 25
conv+sweat: 176.794
F_t: 298.15
t_skin: 25
conv+sweat: 176.794
F_t: 298.15
t_skin: 25
conv+sweat: 176.794
F_t: 298.15
t_skin: 25
conv+sweat: 176.794
F_t: 298.15
t_skin: 25
conv+sweat: 176.794
F_t: 298.15
t_skin: 25
conv+sweat: 176.794
F_t: 298.15
t_skin: 25
conv+sweat: 176.794
F_t: 298.15
t_skin: 25
conv+sweat: 176.794
F_t: 298.15
t_skin: 25
conv+sweat: 176.794
F_t: 298.15
t_skin: 25
conv+sweat: 176.794
F_t: 298.15
t_skin: 25
conv+sweat: 176.794
F_t: 298.15
t_skin: 25
conv+sweat: 176.794
F_t: 298.15
t_skin: 25
conv+sweat: 176.794
F_t: 298.15
t_skin: 25
conv+sweat: 176.794
F_t: 298.15
t_skin: 25
conv+sweat: 176.794
F_t: 298.15
t_skin: 25
conv+sweat: 176.794
F_t: 298.15
t_skin: 25
conv+sweat: 176.794
F_t: 298.15
t_skin: 25
conv+sweat: 176.794
F_t: 298.15
t_skin: 25
conv+sweat: 176.794
F_t: 298.15
t_skin: 25
conv+sweat: 176.794
F_t: 298.15
t_skin: 25
conv+sweat: 176.794
F_t: 298.15
t_skin: 25
conv+sweat: 176.794
F_t: 298.15
t_skin: 25
conv+sweat: 176.794
F_t: 298.15
t_skin: 25
conv+sweat: 176.794
F_t: 298.15
t_skin: 25
conv+sweat: 176.794
F_t: 298.15
t_skin: 25
conv+sweat: 176.794
F_t: 298.15
t_skin: 25
conv+sweat: 176.794
F_t: 298.15
t_skin: 25
conv+sweat: 176.794
F_t: 298.15
t_skin: 25
conv+sweat: 176.794
F_t: 298.15
t_skin: 25
conv+sweat: 176.794
F_t: 298.15
t_skin: 25
conv+sweat: 176.794
F_t: 298.15
t_skin: 25
conv+sweat: 176.794
F_t: 298.15
t_skin: 25
conv+sweat: 176.794
F_t: 298.15
t_skin: 25
conv+sweat: 176.794
F_t: 298.15
t_skin: 25
conv+sweat: 176.794
F_t: 298.15
t_skin: 25
conv+sweat: 176.794
F_t: 298.15
t_skin: 25
conv+sweat: 176.794
F_t: 298.15
t_skin: 25
conv+sweat: 176.794
F_t: 298.15
t_skin: 25
conv+sweat: 176.794
F_t: 298.15
t_skin: 25
conv+sweat: 176.794
F_t: 298.15
t_skin: 25
conv+sweat: 176.794
F_t: 298.15
t_skin: 25
conv+sweat: 176.794
F_t: 298.15
t_skin: 25
conv+sweat: 176.794
F_t: 298.15
t_skin: 25
conv+sweat: 176.794
F_t: 298.15
t_skin: 25
conv+sweat: 176.794
F_t: 298.15
t_skin: 25
conv+sweat: 176.794
F_t: 298.15
t_skin: 25
conv+sweat: 176.794
F_t: 298.15
t_skin: 25
conv+sweat: 176.794
F_t: 298.15
t_skin: 25
conv+sweat: 176.794
F_t: 298.15
t_skin: 25
conv+sweat: 176.794
F_t: 298.15
t_skin: 25
conv+sweat: 176.794
F_t: 298.15
t_skin: 25
conv+sweat: 176.794
F_t: 298.15
t_skin: 25
conv+sweat: 176.794
F_t: 298.15
t_skin: 25
conv+sweat: 176.794
F_t: 298.15
t_skin: 25
conv+sweat: 176.794
F_t: 298.15
t_skin: 25
conv+sweat: 176.794
F_t: 298.15
t_skin: 25
conv+sweat: 176.794
F_t: 298.15
t_skin: 25
conv+sweat: 176.794
F_t: 298.15
t_skin: 25
conv+sweat: 176.794
F_t: 298.15
t_skin: 25
conv+sweat: 176.794
F_t: 298.15
t_skin: 25
conv+sweat: 176.794
F_t: 298.15
t_skin: 25
conv+sweat: 176.794
F_t: 298.15
t_skin: 25
conv+sweat: 176.794
F_t: 298.15
t_skin: 25
conv+sweat: 176.794
F_t: 298.15
t_skin: 25
conv+sweat: 176.794
F_t: 298.15
t_skin: 25
conv+sweat: 176.794
F_t: 298.15
t_skin: 25
conv+sweat: 176.794
F_t: 298.15
t_skin: 25
conv+sweat: 176.794
F_t: 298.15
t_skin: 25
conv+sweat: 176.794
F_t: 298.15
t_skin: 25
conv+sweat: 176.794
F_t: 298.15
t_skin: 25
conv+sweat: 176.794
F_t: 298.15
t_skin: 25
conv+sweat: 176.794
F_t: 298.15
t_skin: 25
conv+sweat: 176.794
F_t: 298.15
t_skin: 25
conv+sweat: 176.794
F_t: 298.15
t_skin: 25
conv+sweat: 176.794
F_t: 298.15
t_skin: 25
conv+sweat: 176.794
F_t: 298.15
t_skin: 25
conv+sweat: 176.794
F_t: 298.15
t_skin: 25
conv+sweat: 176.794
F_t: 298.15
t_skin: 25
conv+sweat: 176.794
F_t: 298.15
t_skin: 25
conv+sweat: 176.794
F_t: 298.15
t_skin: 25
conv+sweat: 176.794
F_t: 298.15
t_skin: 25
conv+sweat: 176.794
F_t: 298.15
t_skin: 25
conv+sweat: 176.794
F_t: 298.15
t_skin: 25
conv+sweat: 176.794
F_t: 298.15
t_skin: 25
conv+sweat: 176.794
F_t: 298.15
t_skin: 25
conv+sweat: 176.794
F_t: 298.15
t_skin: 25
conv+sweat: 176.794
F_t: 298.15
t_skin: 25
conv+sweat: 176.794
F_t: 298.15
t_skin: 25
conv+sweat: 176.794
F_t: 298.15
t_skin: 25
conv+sweat: 176.794
F_t: 298.15
t_skin: 25
conv+sweat: 176.794
F_t: 298.15
t_skin: 25
conv+sweat: 176.794
F_t: 298.15
t_skin: 25
conv+sweat: 176.794
F_t: 298.15
t_skin: 25
conv+sweat: 176.794
F_t: 298.15
t_skin: 25
conv+sweat: 176.794
F_t: 298.15
t_skin: 25
conv+sweat: 176.794
F_t: 298.15
t_skin: 25
conv+sweat: 176.794
F_t: 298.15
t_skin: 25
conv+sweat: 176.794
F_t: 298.15
t_skin: 25
conv+sweat: 176.794
F_t: 298.15
t_skin: 25
conv+sweat: 176.794
F_t: 298.15
t_skin: 25
conv+sweat: 176.794
F_t: 298.15
t_skin: 25
conv+sweat: 176.794
F_t: 298.15
t_skin: 25
conv+sweat: 176.794
F_t: 298.15
t_skin: 25
conv+sweat: 176.794
F_t: 298.15
t_skin: 25
conv+sweat: 176.794
F_t: 298.15
t_skin: 25
conv+sweat: 176.794
F_t: 298.15
t_skin: 25
conv+sweat: 176.794
F_t: 298.15
t_skin: 25
conv+sweat: 176.794
F_t: 298.15
t_skin: 25
conv+sweat: 176.794
F_t: 298.15
t_skin: 25
conv+sweat: 176.794
F_t: 298.15
t_skin: 25
conv+sweat: 176.794
F_t: 298.15
t_skin: 25
conv+sweat: 176.794
F_t: 298.15
t_skin: 25
conv+sweat: 176.794
F_t: 298.15
t_skin: 25
conv+sweat: 176.794
F_t: 298.15
t_skin: 25
conv+sweat: 176.794
F_t: 298.15
t_skin: 25
conv+sweat: 176.794
F_t: 298.15
t_skin: 25
conv+sweat: 176.794
F_t: 298.15
t_skin: 25
conv+sweat: 176.794
F_t: 298.15
t_skin: 25
conv+sweat: 176.794
F_t: 298.15
t_skin: 25
conv+sweat: 176.794
F_t: 298.15
t_skin: 25
conv+sweat: 176.794
F_t: 298.15
t_skin: 25
conv+sweat: 176.794
F_t: 298.15
t_skin: 25
conv+sweat: 176.794
F_t: 298.15
t_skin: 25
conv+sweat: 176.794
F_t: 298.15
t_skin: 25
conv+sweat: 176.794
F_t: 298.15
t_skin: 25
conv+sweat: 176.794
F_t: 298.15
t_skin: 25
conv+sweat: 176.794
F_t: 298.15
t_skin: 25
conv+sweat: 176.794
F_t: 298.15
t_skin: 25
conv+sweat: 176.794
F_t: 298.15
t_skin: 25
conv+sweat: 176.794
F_t: 298.15
t_skin: 25
conv+sweat: 176.794
F_t: 298.15
t_skin: 25
conv+sweat: 176.794
F_t: 298.15
t_skin: 25
conv+sweat: 176.794
F_t: 298.15
t_skin: 25
conv+sweat: 176.794
F_t: 298.15
t_skin: 25
conv+sweat: 176.794
F_t: 298.15
t_skin: 25
conv+sweat: 176.794
F_t: 298.15
t_skin: 25
conv+sweat: 176.794
F_t: 298.15
t_skin: 25
conv+sweat: 176.794
F_t: 298.15
t_skin: 25
conv+sweat: 176.794
F_t: 298.15
t_skin: 25
conv+sweat: 176.794
F_t: 298.15
t_skin: 25
conv+sweat: 176.794
F_t: 298.15
t_skin: 25
conv+sweat: 176.794
F_t: 298.15
t_skin: 25
conv+sweat: 176.794
F_t: 298.15
t_skin: 25
conv+sweat: 176.794
F_t: 298.15
t_skin: 25
conv+sweat: 176.794
F_t: 298.15
t_skin: 25
conv+sweat: 176.794
F_t: 298.15
t_skin: 25
conv+sweat: 176.794
F_t: 298.15
t_skin: 25
conv+sweat: 176.794
F_t: 298.15
t_skin: 25
conv+sweat: 176.794
F_t: 298.15
t_skin: 25
conv+sweat: 176.794
F_t: 298.15
t_skin: 25
conv+sweat: 176.794
F_t: 298.15
t_skin: 25
conv+sweat: 176.794
F_t: 298.15
t_skin: 25
conv+sweat: 176.794
F_t: 298.15
t_skin: 25
conv+sweat: 176.794
F_t: 298.15
t_skin: 25
conv+sweat: 176.794
F_t: 298.15
t_skin: 25
conv+sweat: 176.794
F_t: 298.15
t_skin: 25
conv+sweat: 176.794
F_t: 298.15
t_skin: 25
conv+sweat: 176.794
F_t: 298.15
t_skin: 25
conv+sweat: 176.794
F_t: 298.15
t_skin: 25
conv+sweat: 176.794
F_t: 298.15
t_skin: 25
conv+sweat: 176.794
F_t: 298.15
t_skin: 25
conv+sweat: 176.794
F_t: 298.15
t_skin: 25
conv+sweat: 176.794
F_t: 298.15
t_skin: 25
conv+sweat: 176.794
F_t: 298.15
t_skin: 25
conv+sweat: 176.794
F_t: 298.15
t_skin: 25
conv+sweat: 176.794
F_t: 298.15
t_skin: 25
conv+sweat: 176.794
F_t: 298.15
t_skin: 25
conv+sweat: 176.794
F_t: 298.15
t_skin: 25
conv+sweat: 176.794
F_t: 298.15
t_skin: 25
conv+sweat: 176.794
F_t: 298.15
t_skin: 25
conv+sweat: 176.794
F_t: 298.15
t_skin: 25
conv+sweat: 176.794
F_t: 298.15
t_skin: 25
conv+sweat: 176.794
F_t: 298.15
t_skin: 25
conv+sweat: 176.794
F_t: 298.15
t_skin: 25
conv+sweat: 176.794
F_t: 298.15
t_skin: 25
conv+sweat: 176.794
F_t: 298.15
t_skin: 25
conv+sweat: 176.794
F_t: 298.15
t_skin: 25
conv+sweat: 176.794
F_t: 298.15
t_skin: 25
conv+sweat: 176.794
F_t: 298.15
t_skin: 25
conv+sweat: 176.794
F_t: 298.15
t_skin: 25
conv+sweat: 176.794
F_t: 298.15
t_skin: 25
conv+sweat: 176.794
F_t: 298.15
t_skin: 25
conv+sweat: 176.794
F_t: 298.15
t_skin: 25
conv+sweat: 176.794
F_t: 298.15
t_skin: 25
conv+sweat: 176.794
F_t: 298.15
t_skin: 25
conv+sweat: 176.794
F_t: 298.15
t_skin: 25
conv+sweat: 176.794
F_t: 298.15
t_skin: 25
conv+sweat: 176.794
F_t: 298.15
t_skin: 25
conv+sweat: 176.794
F_t: 298.15
t_skin: 25
conv+sweat: 176.794
F_t: 298.15
t_skin: 25
conv+sweat: 176.794
F_t: 298.15
t_skin: 25
conv+sweat: 176.794
F_t: 298.15
t_skin: 25
conv+sweat: 176.794
F_t: 298.15
t_skin: 25
conv+sweat: 176.794
F_t: 298.15
t_skin: 25
conv+sweat: 176.794
F_t: 298.15
t_skin: 25
conv+sweat: 176.794
F_t: 298.15
t_skin: 25
conv+sweat: 176.794
F_t: 298.15
t_skin: 25
conv+sweat: 176.794
F_t: 298.15
t_skin: 25
conv+sweat: 176.794
F_t: 298.15
t_skin: 25
conv+sweat: 176.794
F_t: 298.15
t_skin: 25
conv+sweat: 176.794
F_t: 298.15
t_skin: 25
conv+sweat: 176.794
F_t: 298.15
t_skin: 25
conv+sweat: 176.794
F_t: 298.15
t_skin: 25
conv+sweat: 176.794
F_t: 298.15
t_skin: 25
conv+sweat: 176.794
F_t: 298.15
t_skin: 25
conv+sweat: 176.794
F_t: 298.15
t_skin: 25
conv+sweat: 176.794
F_t: 298.15
t_skin: 25
conv+sweat: 176.794
F_t: 298.15
t_skin: 25
conv+sweat: 176.794
F_t: 298.15
t_skin: 25
conv+sweat: 176.794
F_t: 298.15
t_skin: 25
conv+sweat: 176.794
F_t: 298.15
t_skin: 25
conv+sweat: 176.794
F_t: 298.15
t_skin: 25
conv+sweat: 176.794
F_t: 298.15
t_skin: 25
conv+sweat: 176.794
F_t: 298.15
t_skin: 25
conv+sweat: 176.794
F_t: 298.15
t_skin: 25
conv+sweat: 176.794
F_t: 298.15
t_skin: 25
conv+sweat: 176.794
F_t: 298.15
t_skin: 25
conv+sweat: 176.794
F_t: 298.15
t_skin: 25
conv+sweat: 176.794
F_t: 298.15
t_skin: 25
conv+sweat: 176.794
F_t: 298.15
t_skin: 25
conv+sweat: 176.794
F_t: 298.15
t_skin: 25
conv+sweat: 176.794
F_t: 298.15
t_skin: 25
conv+sweat: 176.794
F_t: 298.15
t_skin: 25
conv+sweat: 176.794
F_t: 298.15
t_skin: 25
conv+sweat: 176.794
F_t: 298.15
t_skin: 25
conv+sweat: 176.794
F_t: 298.15
t_skin: 25
conv+sweat: 176.794
F_t: 298.15
t_skin: 25
conv+sweat: 176.794
F_t: 298.15
t_skin: 25
conv+sweat: 176.794
F_t: 298.15
t_skin: 25
conv+sweat: 176.794
F_t: 298.15
t_skin: 25
conv+sweat: 176.794
F_t: 298.15
t_skin: 25
conv+sweat: 176.794
F_t: 298.15
t_skin: 25
conv+sweat: 176.794
F_t: 298.15
t_skin: 25
conv+sweat: 176.794
F_t: 298.15
t_skin: 25
conv+sweat: 176.794
F_t: 298.15
t_skin: 25
conv+sweat: 176.794
F_t: 298.15
t_skin: 25
conv+sweat: 176.794
F_t: 298.15
t_skin: 25
conv+sweat: 176.794
F_t: 298.15
t_skin: 25
conv+sweat: 176.794
F_t: 298.15
t_skin: 25
conv+sweat: 176.794
F_t: 298.15
t_skin: 25
conv+sweat: 176.794
F_t: 298.15
t_skin: 25
conv+sweat: 176.794
F_t: 298.15
t_skin: 25
conv+sweat: 176.794
F_t: 298.15
t_skin: 25
conv+sweat: 176.794
F_t: 298.15
t_skin: 25
conv+sweat: 176.794
F_t: 298.15
t_skin: 25
conv+sweat: 176.794
F_t: 298.15
t_skin: 25
conv+sweat: 176.794
F_t: 298.15
t_skin: 25
conv+sweat: 176.794
F_t: 298.15
t_skin: 25
conv+sweat: 176.794
F_t: 298.15
t_skin: 25
conv+sweat: 176.794
F_t: 298.15
t_skin: 25
conv+sweat: 176.794
F_t: 298.15
t_skin: 25
conv+sweat: 176.794
F_t: 298.15
t_skin: 25
conv+sweat: 176.794
F_t: 298.15
t_skin: 25
conv+sweat: 176.794
F_t: 298.15
t_skin: 25
conv+sweat: 176.794
F_t: 298.15
t_skin: 25
conv+sweat: 176.794
F_t: 298.15
t_skin: 25
conv+sweat: 176.794
F_t: 298.15
t_skin: 25
conv+sweat: 176.794
F_t: 298.15
t_skin: 25
conv+sweat: 176.794
F_t: 298.15
t_skin: 25
conv+sweat: 176.794
F_t: 298.15
t_skin: 25
conv+sweat: 176.794
F_t: 298.15
t_skin: 25
conv+sweat: 176.794
F_t: 298.15
t_skin: 25
conv+sweat: 176.794
F_t: 298.15
t_skin: 25
conv+sweat: 176.794
F_t: 298.15
t_skin: 25
conv+sweat: 176.794
F_t: 298.15
t_skin: 25
conv+sweat: 176.794
F_t: 298.15
t_skin: 25
conv+sweat: 176.794
F_t: 298.15
t_skin: 25
conv+sweat: 176.794
F_t: 298.15
t_skin: 25
conv+sweat: 176.794
F_t: 298.15
t_skin: 25
conv+sweat: 176.794
F_t: 298.15
t_skin: 25
conv+sweat: 176.794
F_t: 298.15
t_skin: 25
conv+sweat: 176.794
F_t: 298.15
t_skin: 25
conv+sweat: 176.794
F_t: 298.15
t_skin: 25
conv+sweat: 176.794
F_t: 298.15
t_skin: 25
conv+sweat: 176.794
F_t: 298.15
t_skin: 25
conv+sweat: 176.794
F_t: 298.15
t_skin: 25
conv+sweat: 176.794
F_t: 298.15
t_skin: 25
conv+sweat: 176.794
F_t: 298.15
t_skin: 25
conv+sweat: 176.794
F_t: 298.15
t_skin: 25
conv+sweat: 176.794
F_t: 298.15
t_skin: 25
conv+sweat: 176.794
F_t: 298.15
t_skin: 25
conv+sweat: 176.794
F_t: 298.15
t_skin: 25
conv+sweat: 176.794
F_t: 298.15
t_skin: 25
conv+sweat: 176.794
F_t: 298.15
t_skin: 25
conv+sweat: 176.794
F_t: 298.15
t_skin: 25
conv+sweat: 176.794
F_t: 298.15
t_skin: 25
conv+sweat: 176.794
F_t: 298.15
t_skin: 25
conv+sweat: 176.794
F_t: 298.15
t_skin: 25
conv+sweat: 176.794
F_t: 298.15
t_skin: 25
conv+sweat: 176.794
F_t: 298.15
t_skin: 25
conv+sweat: 176.794
F_t: 298.15
t_skin: 25
conv+sweat: 176.794
F_t: 298.15
t_skin: 25
conv+sweat: 176.794
F_t: 298.15
t_skin: 25
conv+sweat: 176.794
F_t: 298.15
t_skin: 25
conv+sweat: 176.794
F_t: 298.15
t_skin: 25
conv+sweat: 176.794
F_t: 298.15
t_skin: 25
conv+sweat: 176.794
F_t: 298.15
t_skin: 25
conv+sweat: 176.794
F_t: 298.15
t_skin: 25
conv+sweat: 176.794
F_t: 298.15
t_skin: 25
conv+sweat: 176.794
F_t: 298.15
t_skin: 25
conv+sweat: 176.794
F_t: 298.15
t_skin: 25
conv+sweat: 176.794
F_t: 298.15
t_skin: 25
conv+sweat: 176.794
F_t: 298.15
t_skin: 25
conv+sweat: 176.794
F_t: 298.15
t_skin: 25
conv+sweat: 176.794
F_t: 298.15
t_skin: 25
conv+sweat: 176.794
F_t: 298.15
t_skin: 25
conv+sweat: 176.794
F_t: 298.15
t_skin: 25
conv+sweat: 176.794
F_t: 298.15
t_skin: 25
conv+sweat: 176.794
F_t: 298.15
t_skin: 25
conv+sweat: 176.794
F_t: 298.15
t_skin: 25
conv+sweat: 176.794
F_t: 298.15
t_skin: 25
conv+sweat: 176.794
F_t: 298.15
t_skin: 25
conv+sweat: 176.794
F_t: 298.15
t_skin: 25
conv+sweat: 176.794
F_t: 298.15
t_skin: 25
conv+sweat: 176.794
F_t: 298.15
t_skin: 25
conv+sweat: 176.794
F_t: 298.15
t_skin: 25
conv+sweat: 176.794
F_t: 298.15
t_skin: 25
conv+sweat: 176.794
F_t: 298.15
t_skin: 25
conv+sweat: 176.794
F_t: 298.15
t_skin: 25
conv+sweat: 176.794
F_t: 298.15
t_skin: 25
conv+sweat: 176.794
F_t: 298.15
t_skin: 25
conv+sweat: 176.794
F_t: 298.15
t_skin: 25
conv+sweat: 176.794
F_t: 298.15
t_skin: 25
conv+sweat: 176.794
F_t: 298.15
t_skin: 25
conv+sweat: 176.794
F_t: 298.15
t_skin: 25
conv+sweat: 176.794
F_t: 298.15
t_skin: 25
conv+sweat: 176.794
F_t: 298.15
t_skin: 25
conv+sweat: 176.794
F_t: 298.15
t_skin: 25
conv+sweat: 176.794
F_t: 298.15
t_skin: 25
conv+sweat: 176.794
F_t: 298.15
t_skin: 25
conv+sweat: 176.794
F_t: 298.15
t_skin: 25
conv+sweat: 176.794
F_t: 298.15
t_skin: 25
conv+sweat: 176.794
F_t: 298.15
t_skin: 25
conv+sweat: 176.794
F_t: 298.15
t_skin: 25
conv+sweat: 176.794
F_t: 298.15
t_skin: 25
conv+sweat: 176.794
F_t: 298.15
t_skin: 25
conv+sweat: 176.794
F_t: 298.15
t_skin: 25
conv+sweat: 176.794
F_t: 298.15
t_skin: 25
conv+sweat: 176.794
F_t: 298.15
t_skin: 25
conv+sweat: 176.794
F_t: 298.15
t_skin: 25
conv+sweat: 176.794
F_t: 298.15
t_skin: 25
conv+sweat: 176.794
F_t: 298.15
t_skin: 25
conv+sweat: 176.794
F_t: 298.15
t_skin: 25
conv+sweat: 176.794
F_t: 298.15
t_skin: 25
conv+sweat: 176.794
F_t: 298.15
t_skin: 25
conv+sweat: 176.794
F_t: 298.15
t_skin: 25
conv+sweat: 176.794
F_t: 298.15
t_skin: 25
conv+sweat: 176.794
F_t: 298.15
t_skin: 25
conv+sweat: 176.794
F_t: 298.15
t_skin: 25
conv+sweat: 176.794
F_t: 298.15
t_skin: 25
conv+sweat: 176.794
F_t: 298.15
t_skin: 25
conv+sweat: 176.794
F_t: 298.15
t_skin: 25
conv+sweat: 176.794
F_t: 298.15
t_skin: 25
conv+sweat: 176.794
F_t: 298.15
t_skin: 25
conv+sweat: 176.794
F_t: 298.15
t_skin: 25
conv+sweat: 176.794
F_t: 298.15
t_skin: 25
conv+sweat: 176.794
F_t: 298.15
t_skin: 25
conv+sweat: 176.794
F_t: 298.15
t_skin: 25
conv+sweat: 176.794
F_t: 298.15
t_skin: 25
conv+sweat: 176.794
F_t: 298.15
t_skin: 25
conv+sweat: 176.794
F_t: 298.15
t_skin: 25
conv+sweat: 176.794
F_t: 298.15
t_skin: 25
conv+sweat: 176.794
F_t: 298.15
t_skin: 25
conv+sweat: 176.794
F_t: 298.15
t_skin: 25
conv+sweat: 176.794
F_t: 298.15
t_skin: 25
conv+sweat: 176.794
F_t: 298.15
t_skin: 25
conv+sweat: 176.794
F_t: 298.15
t_skin: 25
conv+sweat: 176.794
F_t: 298.15
t_skin: 25
conv+sweat: 176.794
F_t: 298.15
t_skin: 25
conv+sweat: 176.794
F_t: 298.15
t_skin: 25
conv+sweat: 176.794
F_t: 298.15
t_skin: 25
conv+sweat: 176.794
F_t: 298.15
t_skin: 25
conv+sweat: 176.794
F_t: 298.15
t_skin: 25
conv+sweat: 176.794
F_t: 298.15
t_skin: 25
conv+sweat: 176.794
F_t: 298.15
t_skin: 25
conv+sweat: 176.794
F_t: 298.15
t_skin: 25
conv+sweat: 176.794
F_t: 298.15
t_skin: 25
conv+sweat: 176.794
F_t: 298.15
t_skin: 25
conv+sweat: 176.794
F_t: 298.15
t_skin: 25
conv+sweat: 176.794
F_t: 298.15
t_skin: 25
conv+sweat: 176.794
F_t: 298.15
t_skin: 25
conv+sweat: 176.794
F_t: 298.15
t_skin: 25
conv+sweat: 176.794
F_t: 298.15
t_skin: 25
conv+sweat: 176.794
F_t: 298.15
t_skin: 25
conv+sweat: 176.794
F_t: 298.15
t_skin: 25
conv+sweat: 176.794
F_t: 298.15
t_skin: 25
conv+sweat: 176.794
F_t: 298.15
t_skin: 25
conv+sweat: 176.794
[...]
t_skin: 38.5645
conv+sweat: 65.0003
F_t: 311.547
t_skin: 38.3969
conv+sweat: 66.3815
F_t: 311.293
t_skin: 38.1429
conv+sweat: 68.4753
F_t: 311.377
t_skin: 38.2266
conv+sweat: 67.7857
F_t: 311.397
t_skin: 38.2471
conv+sweat: 67.6163
F_t: 311.643
t_skin: 38.4931
conv+sweat: 65.5892
F_t: 311.55
t_skin: 38.3998
conv+sweat: 66.3581
F_t: 311.443
t_skin: 38.2929
conv+sweat: 67.2387
F_t: 311.503
t_skin: 38.3533
conv+sweat: 66.7414
F_t: 311.254
t_skin: 38.1036
conv+sweat: 68.7989
F_t: 311.43
t_skin: 38.2802
conv+sweat: 67.3432
F_t: 311.621
t_skin: 38.4706
conv+sweat: 65.7742
F_t: 311.576
t_skin: 38.426
conv+sweat: 66.1417
F_t: 311.473
t_skin: 38.323
conv+sweat: 66.991
F_t: 311.533
t_skin: 38.3835
conv+sweat: 66.4927
F_t: 311.52
t_skin: 38.3699
conv+sweat: 66.6045
F_t: 311.408
t_skin: 38.2584
conv+sweat: 67.5237
F_t: 312.113
t_skin: 38.9635
conv+sweat: 61.7123
F_t: 312.219
t_skin: 39.0686
conv+sweat: 60.8457
F_t: 311.332
t_skin: 38.1825
conv+sweat: 68.1489
F_t: 311.342
t_skin: 38.1918
conv+sweat: 68.0718
F_t: 311.495
t_skin: 38.3445
conv+sweat: 66.8133
F_t: 311.661
t_skin: 38.5113
conv+sweat: 65.4388
F_t: 311.657
t_skin: 38.5069
conv+sweat: 65.4752
F_t: 311.551
t_skin: 38.4006
conv+sweat: 66.3512
F_t: 311.652
t_skin: 38.5016
conv+sweat: 65.5192
F_t: 311.601
t_skin: 38.4509
conv+sweat: 65.9367
F_t: 311.359
t_skin: 38.2088
conv+sweat: 67.9323
F_t: 311.393
t_skin: 38.2428
conv+sweat: 67.6518
F_t: 311.423
t_skin: 38.2725
conv+sweat: 67.4067
F_t: 311.38
t_skin: 38.23
conv+sweat: 67.757
F_t: 311.506
t_skin: 38.3556
conv+sweat: 66.7218
F_t: 311.628
t_skin: 38.4779
conv+sweat: 65.7144
F_t: 311.639
t_skin: 38.489
conv+sweat: 65.6226
F_t: 311.543
t_skin: 38.393
conv+sweat: 66.4136
F_t: 311.522
t_skin: 38.3721
conv+sweat: 66.5866
F_t: 311.542
t_skin: 38.3924
conv+sweat: 66.4192
F_t: 311.674
t_skin: 38.5244
conv+sweat: 65.3314
F_t: 311.537
t_skin: 38.3873
conv+sweat: 66.4609
F_t: 311.249
t_skin: 38.0993
conv+sweat: 68.8342
F_t: 311.538
t_skin: 38.3879
conv+sweat: 66.4557
F_t: 311.699
t_skin: 38.5491
conv+sweat: 65.1275
F_t: 311.626
t_skin: 38.476
conv+sweat: 65.7296
F_t: 311.672
t_skin: 38.5217
conv+sweat: 65.353
F_t: 311.866
t_skin: 38.7164
conv+sweat: 63.7485
F_t: 311.632
t_skin: 38.4822
conv+sweat: 65.6785
F_t: 311.631
t_skin: 38.481
conv+sweat: 65.6884
F_t: 311.466
t_skin: 38.3163
conv+sweat: 67.0457
F_t: 311.56
t_skin: 38.41
conv+sweat: 66.2739
F_t: 311.803
t_skin: 38.6528
conv+sweat: 64.2726
F_t: 311.637
t_skin: 38.4873
conv+sweat: 65.637
F_t: 311.599
t_skin: 38.4486
conv+sweat: 65.9561
F_t: 311.516
t_skin: 38.3661
conv+sweat: 66.6354
F_t: 311.627
t_skin: 38.4769
conv+sweat: 65.7228
F_t: 311.764
t_skin: 38.6137
conv+sweat: 64.5946
F_t: 311.654
t_skin: 38.5036
conv+sweat: 65.5025
F_t: 311.642
t_skin: 38.4915
conv+sweat: 65.602
F_t: 311.671
t_skin: 38.5205
conv+sweat: 65.3628
F_t: 311.131
t_skin: 37.9813
conv+sweat: 69.8072
F_t: 311.155
t_skin: 38.005
conv+sweat: 69.6114
F_t: 311.132
t_skin: 37.9815
conv+sweat: 69.8053
F_t: 311.25
t_skin: 38.0995
conv+sweat: 68.8325
F_t: 311.261
t_skin: 38.1108
conv+sweat: 68.7399
F_t: 311.25
t_skin: 38.1001
conv+sweat: 68.8281
F_t: 311.225
t_skin: 38.0752
conv+sweat: 69.0332
F_t: 311.275
t_skin: 38.1252
conv+sweat: 68.6208
F_t: 311.26
t_skin: 38.1098
conv+sweat: 68.7482
F_t: 311.21
t_skin: 38.0597
conv+sweat: 69.1607
F_t: 311.227
t_skin: 38.0769
conv+sweat: 69.0193
F_t: 311.339
t_skin: 38.1894
conv+sweat: 68.0921
F_t: 311.269
t_skin: 38.1193
conv+sweat: 68.6699
F_t: 311.464
t_skin: 38.3145
conv+sweat: 67.0609
F_t: 311.365
t_skin: 38.2154
conv+sweat: 67.8779
F_t: 311.292
t_skin: 38.1424
conv+sweat: 68.4795
F_t: 311.292
t_skin: 38.1421
conv+sweat: 68.4815
F_t: 311.27
t_skin: 38.1196
conv+sweat: 68.6674
F_t: 311.282
t_skin: 38.1323
conv+sweat: 68.5623
F_t: 311.472
t_skin: 38.3218
conv+sweat: 67.0005
F_t: 311.356
t_skin: 38.206
conv+sweat: 67.9556
F_t: 311.362
t_skin: 38.2125
conv+sweat: 67.9018
F_t: 311.258
t_skin: 38.1075
conv+sweat: 68.7669
F_t: 311.301
t_skin: 38.1507
conv+sweat: 68.4108
F_t: 311.477
t_skin: 38.3266
conv+sweat: 66.9614
F_t: 311.478
t_skin: 38.3282
conv+sweat: 66.948
F_t: 311.381
t_skin: 38.2306
conv+sweat: 67.7527
F_t: 311.282
t_skin: 38.1322
conv+sweat: 68.5638
F_t: 311.175
t_skin: 38.0254
conv+sweat: 69.4438
F_t: 311.213
t_skin: 38.0633
conv+sweat: 69.1309
F_t: 311.373
t_skin: 38.2226
conv+sweat: 67.8181
F_t: 311.373
t_skin: 38.2231
conv+sweat: 67.8142
F_t: 311.372
t_skin: 38.2216
conv+sweat: 67.8267
F_t: 311.378
t_skin: 38.2283
conv+sweat: 67.7716
F_t: 311.166
t_skin: 38.0163
conv+sweat: 69.5182
F_t: 311.195
t_skin: 38.0452
conv+sweat: 69.2806
F_t: 311.187
t_skin: 38.0374
conv+sweat: 69.3443
F_t: 311.236
t_skin: 38.0861
conv+sweat: 68.9433
F_t: 311.452
t_skin: 38.3019
conv+sweat: 67.1649
F_t: 311.38
t_skin: 38.2303
conv+sweat: 67.7552
F_t: 311.378
t_skin: 38.2275
conv+sweat: 67.7776
F_t: 311.38
t_skin: 38.2299
conv+sweat: 67.7586
F_t: 311.393
t_skin: 38.2426
conv+sweat: 67.6536
F_t: 311.391
t_skin: 38.2407
conv+sweat: 67.6688
F_t: 311.378
t_skin: 38.2282
conv+sweat: 67.7725
F_t: 311.153
t_skin: 38.0027
conv+sweat: 69.6308
F_t: 311.473
t_skin: 38.3225
conv+sweat: 66.9948
F_t: 311.217
t_skin: 38.0665
conv+sweat: 69.1047
F_t: 311.459
t_skin: 38.3094
conv+sweat: 67.1029
F_t: 311.396
t_skin: 38.246
conv+sweat: 67.6257
F_t: 311.4
t_skin: 38.25
conv+sweat: 67.5925
F_t: 311.39
t_skin: 38.2401
conv+sweat: 67.6739
F_t: 311.32
t_skin: 38.1701
conv+sweat: 68.2511
F_t: 311.339
t_skin: 38.1888
conv+sweat: 68.097
F_t: 311.409
t_skin: 38.2592
conv+sweat: 67.5165
F_t: 311.535
t_skin: 38.3855
conv+sweat: 66.476
F_t: 311.491
t_skin: 38.3414
conv+sweat: 66.8389
F_t: 311.43
t_skin: 38.2802
conv+sweat: 67.3433
F_t: 311.421
t_skin: 38.2714
conv+sweat: 67.4161
F_t: 311.407
t_skin: 38.257
conv+sweat: 67.535
F_t: 311.242
t_skin: 38.0919
conv+sweat: 68.8956
F_t: 311.301
t_skin: 38.1515
conv+sweat: 68.4046
F_t: 311.34
t_skin: 38.1902
conv+sweat: 68.0856
F_t: 311.354
t_skin: 38.2043
conv+sweat: 67.9694
F_t: 311.518
t_skin: 38.3682
conv+sweat: 66.6182
F_t: 311.558
t_skin: 38.4083
conv+sweat: 66.2882
F_t: 311.503
t_skin: 38.3531
conv+sweat: 66.7426
F_t: 311.485
t_skin: 38.3345
conv+sweat: 66.8961
F_t: 311.244
t_skin: 38.0945
conv+sweat: 68.8741
F_t: 311.547
t_skin: 38.3972
conv+sweat: 66.3796
F_t: 311.431
t_skin: 38.2808
conv+sweat: 67.3388
F_t: 311.431
t_skin: 38.2806
conv+sweat: 67.3406
F_t: 311.322
t_skin: 38.1722
conv+sweat: 68.2341
F_t: 311.326
t_skin: 38.1757
conv+sweat: 68.2046
F_t: 311.566
t_skin: 38.4162
conv+sweat: 66.2229
F_t: 311.316
t_skin: 38.1656
conv+sweat: 68.2883
F_t: 311.534
t_skin: 38.3837
conv+sweat: 66.491
F_t: 311.508
t_skin: 38.3577
conv+sweat: 66.7049
F_t: 311.526
t_skin: 38.3759
conv+sweat: 66.5553
F_t: 311.565
t_skin: 38.4151
conv+sweat: 66.2322
F_t: 311.529
t_skin: 38.3791
conv+sweat: 66.5284
F_t: 311.538
t_skin: 38.388
conv+sweat: 66.4552
F_t: 311.32
t_skin: 38.1697
conv+sweat: 68.2544
F_t: 311.179
t_skin: 38.0294
conv+sweat: 69.4106
F_t: 311.343
t_skin: 38.1934
conv+sweat: 68.0586
F_t: 311.473
t_skin: 38.3227
conv+sweat: 66.9937
F_t: 311.543
t_skin: 38.393
conv+sweat: 66.4141
F_t: 311.88
t_skin: 38.7298
conv+sweat: 63.6383
F_t: 311.26
t_skin: 38.1101
conv+sweat: 68.7454
F_t: 311.278
t_skin: 38.1281
conv+sweat: 68.5968
F_t: 311.407
t_skin: 38.2572
conv+sweat: 67.5333
F_t: 311.406
t_skin: 38.2563
conv+sweat: 67.5403
F_t: 311.392
t_skin: 38.242
conv+sweat: 67.6587
F_t: 311.531
t_skin: 38.3808
conv+sweat: 66.5149
F_t: 311.617
t_skin: 38.4674
conv+sweat: 65.8007
F_t: 311.204
t_skin: 38.0537
conv+sweat: 69.2106
F_t: 311.339
t_skin: 38.1887
conv+sweat: 68.0976
F_t: 311.323
t_skin: 38.1728
conv+sweat: 68.229
F_t: 311.47
t_skin: 38.3197
conv+sweat: 67.0179
F_t: 311.552
t_skin: 38.4018
conv+sweat: 66.3415
F_t: 311.284
t_skin: 38.1344
conv+sweat: 68.545
F_t: 311.52
t_skin: 38.3703
conv+sweat: 66.6014
F_t: 311.328
t_skin: 38.178
conv+sweat: 68.1857
F_t: 311.303
t_skin: 38.1529
conv+sweat: 68.393
F_t: 311.239
t_skin: 38.0889
conv+sweat: 68.9203
F_t: 311.274
t_skin: 38.1245
conv+sweat: 68.6272
F_t: 311.413
t_skin: 38.263
conv+sweat: 67.4852
F_t: 311.392
t_skin: 38.2416
conv+sweat: 67.6615
F_t: 311.586
t_skin: 38.4363
conv+sweat: 66.0567
F_t: 311.578
t_skin: 38.4283
conv+sweat: 66.1232
F_t: 311.56
t_skin: 38.4097
conv+sweat: 66.2765
F_t: 311.182
t_skin: 38.0319
conv+sweat: 69.39
F_t: 311.484
t_skin: 38.3345
conv+sweat: 66.8964
F_t: 311.553
t_skin: 38.4027
conv+sweat: 66.3342
F_t: 311.663
t_skin: 38.5131
conv+sweat: 65.4242
F_t: 311.297
t_skin: 38.1468
conv+sweat: 68.4427
F_t: 311.588
t_skin: 38.4384
conv+sweat: 66.0397
F_t: 311.324
t_skin: 38.1738
conv+sweat: 68.2202
F_t: 311.331
t_skin: 38.181
conv+sweat: 68.1611
F_t: 311.263
t_skin: 38.1126
conv+sweat: 68.7251
F_t: 311.233
t_skin: 38.0832
conv+sweat: 68.967
F_t: 311.241
t_skin: 38.0907
conv+sweat: 68.9052
F_t: 311.388
t_skin: 38.2375
conv+sweat: 67.6954
F_t: 311.391
t_skin: 38.2408
conv+sweat: 67.6687
F_t: 311.386
t_skin: 38.2363
conv+sweat: 67.7054
F_t: 311.57
t_skin: 38.4199
conv+sweat: 66.1922
F_t: 311.352
t_skin: 38.2022
conv+sweat: 67.9869
F_t: 311.406
t_skin: 38.2563
conv+sweat: 67.5403
F_t: 311.364
t_skin: 38.2144
conv+sweat: 67.886
F_t: 311.386
t_skin: 38.2355
conv+sweat: 67.7119
F_t: 311.578
t_skin: 38.4284
conv+sweat: 66.122
F_t: 311.663
t_skin: 38.5132
conv+sweat: 65.4232
F_t: 311.342
t_skin: 38.1923
conv+sweat: 68.068
F_t: 311.334
t_skin: 38.1843
conv+sweat: 68.1338
F_t: 311.54
t_skin: 38.3902
conv+sweat: 66.437
F_t: 311.29
t_skin: 38.1399
conv+sweat: 68.5
F_t: 311.3
t_skin: 38.1496
conv+sweat: 68.4198
F_t: 311.201
t_skin: 38.0515
conv+sweat: 69.2288
F_t: 311.326
t_skin: 38.1759
conv+sweat: 68.2032
F_t: 311.431
t_skin: 38.2812
conv+sweat: 67.3351
F_t: 311.43
t_skin: 38.2803
conv+sweat: 67.343
F_t: 311.341
t_skin: 38.1909
conv+sweat: 68.0794
F_t: 311.349
t_skin: 38.1989
conv+sweat: 68.0139
F_t: 311.6
t_skin: 38.45
conv+sweat: 65.9441
F_t: 311.597
t_skin: 38.4473
conv+sweat: 65.9666
F_t: 311.697
t_skin: 38.5472
conv+sweat: 65.1428
F_t: 311.41
t_skin: 38.2596
conv+sweat: 67.513
F_t: 311.359
t_skin: 38.2093
conv+sweat: 67.9283
F_t: 311.398
t_skin: 38.2479
conv+sweat: 67.6099
F_t: 311.374
t_skin: 38.2242
conv+sweat: 67.805
F_t: 311.389
t_skin: 38.239
conv+sweat: 67.6828
F_t: 311.686
t_skin: 38.5359
conv+sweat: 65.236
F_t: 311.521
t_skin: 38.3706
conv+sweat: 66.5983
F_t: 311.601
t_skin: 38.4508
conv+sweat: 65.9373
F_t: 311.374
t_skin: 38.2238
conv+sweat: 67.8084
F_t: 311.57
t_skin: 38.4197
conv+sweat: 66.1938
F_t: 311.597
t_skin: 38.447
conv+sweat: 65.9692
F_t: 311.58
t_skin: 38.4297
conv+sweat: 66.1114
F_t: 311.307
t_skin: 38.157
conv+sweat: 68.3591
F_t: 311.351
t_skin: 38.2005
conv+sweat: 68.0001
F_t: 311.351
t_skin: 38.2007
conv+sweat: 67.9991
F_t: 311.156
t_skin: 38.0065
conv+sweat: 69.5995
F_t: 311.247
t_skin: 38.0971
conv+sweat: 68.8526
F_t: 311.223
t_skin: 38.0735
conv+sweat: 69.0473
F_t: 311.516
t_skin: 38.3655
conv+sweat: 66.6404
F_t: 311.33
t_skin: 38.1803
conv+sweat: 68.1666
F_t: 311.388
t_skin: 38.2382
conv+sweat: 67.6902
F_t: 311.438
t_skin: 38.2884
conv+sweat: 67.2762
F_t: 311.25
t_skin: 38.1001
conv+sweat: 68.8281
F_t: 311.257
t_skin: 38.1068
conv+sweat: 68.7724
F_t: 311.224
t_skin: 38.0738
conv+sweat: 69.0447
F_t: 311.23
t_skin: 38.0796
conv+sweat: 68.9969
F_t: 311.403
t_skin: 38.253
conv+sweat: 67.5675
F_t: 311.601
t_skin: 38.4508
conv+sweat: 65.9378
F_t: 311.501
t_skin: 38.3509
conv+sweat: 66.7608
F_t: 311.464
t_skin: 38.3139
conv+sweat: 67.0662
F_t: 311.533
t_skin: 38.3825
conv+sweat: 66.5002
F_t: 311.365
t_skin: 38.2153
conv+sweat: 67.8788
F_t: 311.405
t_skin: 38.2548
conv+sweat: 67.5533
F_t: 311.389
t_skin: 38.2385
conv+sweat: 67.6872
F_t: 311.987
t_skin: 38.8374
conv+sweat: 62.7515
F_t: 311.541
t_skin: 38.3909
conv+sweat: 66.4313
F_t: 311.972
t_skin: 38.8216
conv+sweat: 62.8814
F_t: 311.57
t_skin: 38.4204
conv+sweat: 66.1883
F_t: 311.573
t_skin: 38.4228
conv+sweat: 66.1683
F_t: 311.569
t_skin: 38.4188
conv+sweat: 66.2015
F_t: 311.504
t_skin: 38.3543
conv+sweat: 66.7327
F_t: 311.647
t_skin: 38.4969
conv+sweat: 65.558
F_t: 311.685
t_skin: 38.5355
conv+sweat: 65.2399
F_t: 311.595
t_skin: 38.4454
conv+sweat: 65.9825
F_t: 311.57
t_skin: 38.4196
conv+sweat: 66.1944
F_t: 311.349
t_skin: 38.1992
conv+sweat: 68.0115
F_t: 311.181
t_skin: 38.0313
conv+sweat: 69.3952
F_t: 311.221
t_skin: 38.0712
conv+sweat: 69.0659
F_t: 311.17
t_skin: 38.0196
conv+sweat: 69.4916
F_t: 311.525
t_skin: 38.3752
conv+sweat: 66.5605
F_t: 311.392
t_skin: 38.2418
conv+sweat: 67.6602
F_t: 311.389
t_skin: 38.2393
conv+sweat: 67.6807
F_t: 311.27
t_skin: 38.1202
conv+sweat: 68.6622
F_t: 311.282
t_skin: 38.1316
conv+sweat: 68.5684
F_t: 311.281
t_skin: 38.1312
conv+sweat: 68.5719
F_t: 311.277
t_skin: 38.1272
conv+sweat: 68.605
F_t: 311.242
t_skin: 38.092
conv+sweat: 68.8945
F_t: 311.316
t_skin: 38.1657
conv+sweat: 68.2876
F_t: 311.328
t_skin: 38.1781
conv+sweat: 68.1854
F_t: 311.288
t_skin: 38.1381
conv+sweat: 68.5146
F_t: 311.452
t_skin: 38.3016
conv+sweat: 67.1673
F_t: 311.444
t_skin: 38.2944
conv+sweat: 67.2263
F_t: 311.498
t_skin: 38.3478
conv+sweat: 66.7869
F_t: 311.992
t_skin: 38.8422
conv+sweat: 62.7118
F_t: 311.453
t_skin: 38.3027
conv+sweat: 67.1581
F_t: 311.383
t_skin: 38.2325
conv+sweat: 67.7365
F_t: 311.373
t_skin: 38.2226
conv+sweat: 67.8183
F_t: 311.533
t_skin: 38.3835
conv+sweat: 66.4926
F_t: 311.656
t_skin: 38.5062
conv+sweat: 65.4808
F_t: 311.655
t_skin: 38.505
conv+sweat: 65.491
F_t: 311.642
t_skin: 38.4917
conv+sweat: 65.6001
F_t: 311.601
t_skin: 38.4507
conv+sweat: 65.9381
F_t: 311.355
t_skin: 38.2047
conv+sweat: 67.9659
F_t: 311.564
t_skin: 38.4145
conv+sweat: 66.2371
F_t: 311.496
t_skin: 38.3464
conv+sweat: 66.7977
F_t: 311.502
t_skin: 38.3521
conv+sweat: 66.7511
F_t: 311.305
t_skin: 38.1554
conv+sweat: 68.3725
F_t: 311.342
t_skin: 38.1922
conv+sweat: 68.069
F_t: 311.349
t_skin: 38.1992
conv+sweat: 68.0113
F_t: 311.388
t_skin: 38.2378
conv+sweat: 67.6933
F_t: 311.507
t_skin: 38.3571
conv+sweat: 66.7099
F_t: 311.497
t_skin: 38.3471
conv+sweat: 66.7926
F_t: 311.521
t_skin: 38.3708
conv+sweat: 66.597
F_t: 311.507
t_skin: 38.3574
conv+sweat: 66.7071
F_t: 311.369
t_skin: 38.2192
conv+sweat: 67.8464
F_t: 311.358
t_skin: 38.2077
conv+sweat: 67.9413
F_t: 311.282
t_skin: 38.1318
conv+sweat: 68.5664
F_t: 311.311
t_skin: 38.1615
conv+sweat: 68.322
F_t: 311.33
t_skin: 38.1798
conv+sweat: 68.1713
F_t: 311.296
t_skin: 38.1459
conv+sweat: 68.4504
F_t: 311.497
t_skin: 38.3466
conv+sweat: 66.7962
F_t: 311.832
t_skin: 38.6822
conv+sweat: 64.0305
F_t: 311.778
t_skin: 38.6278
conv+sweat: 64.4792
F_t: 311.622
t_skin: 38.4724
conv+sweat: 65.7593
F_t: 311.425
t_skin: 38.2755
conv+sweat: 67.3827
F_t: 311.366
t_skin: 38.2163
conv+sweat: 67.8707
F_t: 311.366
t_skin: 38.216
conv+sweat: 67.8727
F_t: 311.625
t_skin: 38.4751
conv+sweat: 65.7377
F_t: 311.621
t_skin: 38.4712
conv+sweat: 65.7695
F_t: 311.563
t_skin: 38.4128
conv+sweat: 66.2506
F_t: 311.577
t_skin: 38.4265
conv+sweat: 66.1376
F_t: 311.643
t_skin: 38.4927
conv+sweat: 65.5926
F_t: 311.572
t_skin: 38.4217
conv+sweat: 66.1777
F_t: 311.516
t_skin: 38.366
conv+sweat: 66.6367
F_t: 311.593
t_skin: 38.4428
conv+sweat: 66.0039
F_t: 311.62
t_skin: 38.4702
conv+sweat: 65.7776
F_t: 311.433
t_skin: 38.2827
conv+sweat: 67.3232
F_t: 311.601
t_skin: 38.4507
conv+sweat: 65.9387
F_t: 311.609
t_skin: 38.4594
conv+sweat: 65.8664
F_t: 311.552
t_skin: 38.4024
conv+sweat: 66.3366
F_t: 311.768
t_skin: 38.618
conv+sweat: 64.56
F_t: 311.497
t_skin: 38.3474
conv+sweat: 66.7895
F_t: 311.492
t_skin: 38.3415
conv+sweat: 66.8382
F_t: 311.505
t_skin: 38.355
conv+sweat: 66.7271
F_t: 311.302
t_skin: 38.1523
conv+sweat: 68.3977
F_t: 311.347
t_skin: 38.1968
conv+sweat: 68.0311
F_t: 311.412
t_skin: 38.2623
conv+sweat: 67.4909
F_t: 311.41
t_skin: 38.2601
conv+sweat: 67.509
F_t: 311.533
t_skin: 38.3834
conv+sweat: 66.4933
F_t: 311.513
t_skin: 38.3634
conv+sweat: 66.658
F_t: 311.553
t_skin: 38.4026
conv+sweat: 66.3348
F_t: 311.379
t_skin: 38.2286
conv+sweat: 67.7686
F_t: 311.605
t_skin: 38.4549
conv+sweat: 65.9035
F_t: 311.546
t_skin: 38.3965
conv+sweat: 66.3852
F_t: 311.333
t_skin: 38.1832
conv+sweat: 68.1432
F_t: 311.321
t_skin: 38.1711
conv+sweat: 68.2426
F_t: 311.246
t_skin: 38.096
conv+sweat: 68.8619
F_t: 311.27
t_skin: 38.1195
conv+sweat: 68.6679
F_t: 311.445
t_skin: 38.2951
conv+sweat: 67.221
F_t: 311.26
t_skin: 38.1098
conv+sweat: 68.7483
F_t: 311.762
t_skin: 38.6119
conv+sweat: 64.61
F_t: 311.6
t_skin: 38.4495
conv+sweat: 65.9479
F_t: 311.416
t_skin: 38.2655
conv+sweat: 67.4644
F_t: 311.354
t_skin: 38.2039
conv+sweat: 67.9728
F_t: 311.628
t_skin: 38.4784
conv+sweat: 65.71
F_t: 311.534
t_skin: 38.3845
conv+sweat: 66.4843
F_t: 311.584
t_skin: 38.434
conv+sweat: 66.0761
F_t: 311.632
t_skin: 38.4824
conv+sweat: 65.6771
F_t: 311.556
t_skin: 38.406
conv+sweat: 66.3066
F_t: 311.529
t_skin: 38.3792
conv+sweat: 66.5279
F_t: 311.52
t_skin: 38.3697
conv+sweat: 66.6061
F_t: 311.651
t_skin: 38.5006
conv+sweat: 65.5269
F_t: 311.432
t_skin: 38.2822
conv+sweat: 67.3268
F_t: 311.382
t_skin: 38.2324
conv+sweat: 67.7372
F_t: 311.436
t_skin: 38.2862
conv+sweat: 67.2942
F_t: 311.539
t_skin: 38.3887
conv+sweat: 66.4495
F_t: 311.431
t_skin: 38.2809
conv+sweat: 67.338
F_t: 311.449
t_skin: 38.2991
conv+sweat: 67.1877
F_t: 311.434
t_skin: 38.284
conv+sweat: 67.312
F_t: 311.473
t_skin: 38.323
conv+sweat: 66.991
F_t: 311.538
t_skin: 38.3885
conv+sweat: 66.4514
F_t: 311.409
t_skin: 38.2587
conv+sweat: 67.5205
F_t: 311.362
t_skin: 38.2122
conv+sweat: 67.9045
F_t: 311.371
t_skin: 38.2214
conv+sweat: 67.8286
F_t: 311.419
t_skin: 38.2691
conv+sweat: 67.4355
F_t: 311.361
t_skin: 38.2115
conv+sweat: 67.9101
F_t: 311.33
t_skin: 38.1804
conv+sweat: 68.1661
F_t: 311.541
t_skin: 38.3907
conv+sweat: 66.4327
F_t: 311.62
t_skin: 38.4702
conv+sweat: 65.778
F_t: 311.509
t_skin: 38.3592
conv+sweat: 66.6925
F_t: 311.58
t_skin: 38.4298
conv+sweat: 66.1107
F_t: 311.514
t_skin: 38.364
conv+sweat: 66.653
F_t: 311.283
t_skin: 38.1335
conv+sweat: 68.5529
F_t: 311.549
t_skin: 38.3992
conv+sweat: 66.363
F_t: 311.512
t_skin: 38.3622
conv+sweat: 66.668
F_t: 311.567
t_skin: 38.417
conv+sweat: 66.2165
F_t: 311.493
t_skin: 38.3433
conv+sweat: 66.8237
F_t: 311.533
t_skin: 38.3828
conv+sweat: 66.4983
F_t: 311.523
t_skin: 38.3734
conv+sweat: 66.5756
F_t: 311.49
t_skin: 38.3404
conv+sweat: 66.8472
F_t: 311.66
t_skin: 38.5101
conv+sweat: 65.4492
F_t: 311.482
t_skin: 38.3315
conv+sweat: 66.9206
F_t: 311.582
t_skin: 38.4318
conv+sweat: 66.0944
F_t: 311.61
t_skin: 38.4598
conv+sweat: 65.8636
F_t: 311.561
t_skin: 38.4112
conv+sweat: 66.2642
F_t: 311.532
t_skin: 38.3822
conv+sweat: 66.5033
F_t: 311.544
t_skin: 38.3935
conv+sweat: 66.4096
F_t: 311.558
t_skin: 38.4079
conv+sweat: 66.2914
F_t: 311.531
t_skin: 38.3808
conv+sweat: 66.5145
F_t: 311.55
t_skin: 38.3999
conv+sweat: 66.3569
F_t: 311.409
t_skin: 38.259
conv+sweat: 67.5187
F_t: 311.524
t_skin: 38.3735
conv+sweat: 66.5744
F_t: 311.614
t_skin: 38.4638
conv+sweat: 65.8308
F_t: 311.552
t_skin: 38.4021
conv+sweat: 66.3391
F_t: 311.415
t_skin: 38.2654
conv+sweat: 67.4657
F_t: 311.415
t_skin: 38.2652
conv+sweat: 67.4671
F_t: 311.415
t_skin: 38.265
conv+sweat: 67.4688
F_t: 311.514
t_skin: 38.3639
conv+sweat: 66.6538
F_t: 311.553
t_skin: 38.4027
conv+sweat: 66.334
F_t: 311.535
t_skin: 38.3849
conv+sweat: 66.4803
T_amb: 46.4513
wavg_perf: -nan(ind)
avg_tisstemp: -nan(ind), core_temp: -nan(ind), wavg_tisstemp: -nan(ind)
Time: 0, Iteration: 2
Sweating_cal: 0
Convection: 0
T_amb: 46.4513
wavg_perf: 0.00118443
avg_tisstemp: 37.3554, core_temp: 37.2052, wavg_tisstemp: 37.3152
Time: 0, Iteration: 2
Sweating_cal: 0
Convection: 65.1991
T_amb: 46.4513
wavg_perf: 0.00118443
avg_tisstemp: 37.3554, core_temp: 37.2052, wavg_tisstemp: 37.3152
Time: 0, Iteration: 2
Sweating_cal: 0
Convection: 62.4055
T_amb: 46.4513
wavg_perf: 0.00118443
avg_tisstemp: 37.3554, core_temp: 37.2052, wavg_tisstemp: 37.3152
Time: 0, Iteration: 2
Sweating_cal: 0
Convection: 64.6373
T_amb: 46.4513
wavg_perf: 0.00118443
avg_tisstemp: 37.3554, core_temp: 37.2052, wavg_tisstemp: 37.3152
Time: 0, Iteration: 2
Sweating_cal: 0
Convection: 66.4803

Shutting down Server...
Services Shutdown...Done.
