Auto-Transcript Start Time:  21:03:01, 01 Apr 2026 Eastern Daylight Time 
Current Directory: "C:\Users\Research\Desktop\CBT_pred"
Information: The server has started and is running.

              Welcome to ANSYS Fluent 2024 R2

              Copyright 1987-2024 ANSYS, Inc. All Rights Reserved.
              Unauthorized use, distribution or duplication is prohibited.
              This product is subject to U.S. laws governing export and re-export.
              For full Legal Notice, see documentation.

Build Time: May 13 2024 11:21:01 EST  Build Id: 10192  
 
Connected License Server List:	1055@iprevail.ad.uc.edu

     --------------------------------------------------------------
     This is an academic version of ANSYS FLUENT. Usage of this product
     license is limited to the terms and conditions specified in your ANSYS
     license form, additional terms section.
     --------------------------------------------------------------
Host spawning Node 0 on machine "BME-BANER-01" (win64).

-------------------------------------------------------------------------------
ID    Hostname      Core  O.S.         PID    Vendor                         
-------------------------------------------------------------------------------
n3    BME-BANER-01  4/8  Windows-x64  28340  Intel(R) Core(TM) i7-9700      
n2    BME-BANER-01  3/8  Windows-x64  28596  Intel(R) Core(TM) i7-9700      
n1    BME-BANER-01  2/8  Windows-x64  28264  Intel(R) Core(TM) i7-9700      
n0*   BME-BANER-01  1/8  Windows-x64  26504  Intel(R) Core(TM) i7-9700      
host  BME-BANER-01       Windows-x64  7080   Intel(R) Core(TM) i7-9700      

MPI Option Selected: intel
Selected system interconnect: default
-------------------------------------------------------------------------------

Cleanup script file is C:\\Users\\Research\\Desktop\\CBT_pred\\cleanup-fluent-BME-BANER-01-7080.bat
>>> Fast-loading "C:\PROGRA~1\ANSYSI~1\v242\fluent\fluent24.2.0\\addons\afd\lib\hdfio.bin"
Done.
Multicore processors detected. Processor affinity set!

Reading from BME-BANER-01:"C:\Users\Research\Desktop\CBT_pred\data\raw\Run_1\case_files\Exercise_Case_SteadyState_3.cas.h5" in NODE0 mode ...
  Reading mesh ...
       59946 cells,     3 cell zones ...
            918 hexahedral cells,  zone id: 8
          57345 mixed cells,  zone id: 9
           1683 tetrahedral cells,  zone id: 10
      127549 faces,     9 face zones ...
          11168 triangular wall faces,  zone id: 1
            336 triangular wall faces,  zone id: 2
             60 triangular wall faces,  zone id: 3
             60 triangular wall faces,  zone id: 12
            618 quadrilateral wall faces,  zone id: 4
            618 quadrilateral wall faces,  zone id: 13
           2445 quadrilateral interior faces,  zone id: 5
           3168 triangular interior faces,  zone id: 6
         109076 triangular interior faces,  zone id: 7
       14632 nodes,     1 node zone  ...
  Done.


Checking the existence of compiled "libudf" UDF library for current platform.
If needed will attempt auto-compilation...

 	 Make sure that UDF source files are in the directory 
 	 that contains your case and data files. If you have 
 	 an existing libudf directory, please remove this 
 	 directory to ensure that latest files are used. 
  

Will now auto-compile UDF library "libudf".
Copy "C:\Users\Research\Desktop\CBT_pred\data\raw\Run_1\case_files\case1_parametrized.c" to "C:\Users\Research\Desktop\CBT_pred\data\raw\Run_1\case_files\\libudf\\src"
Files udf_names.c and user_nt.udf in 3ddp_host are up-to-date.

Copyright 1987-2024 ANSYS, Inc. All Rights Reserved.
Compiler and linker: Clang (builtin)

scons: warning: No version of Visual Studio compiler found - C/C++ compilers most likely not set correctly
File "C:\\Users\\Research\\Desktop\\CBT_pred\\data\\raw\\Run_1\\case_files\\libudf\\win64\\3ddp_host\\SConstruct", line 20, in <module>
Compiler path: "C:\\PROGRA~1\\ANSYSI~1\\v242\\fluent"\\ntbin\\clang\\bin\\clang-cl
Linker   path: "C:\\PROGRA~1\\ANSYSI~1\\v242\\fluent"\\ntbin\\clang\\bin\\lld-link

scons: warning: No version of Visual Studio compiler found - C/C++ compilers most likely not set correctly
File "C:\\Users\\Research\\Desktop\\CBT_pred\\data\\raw\\Run_1\\case_files\\libudf\\win64\\3ddp_host\\SConstruct", line 156, in <module>
C sources: ['case1_parametrized.c']
Files udf_names.c and user_nt.udf in 3ddp_node are up-to-date.

Copyright 1987-2024 ANSYS, Inc. All Rights Reserved.
Compiler and linker: Clang (builtin)

scons: warning: No version of Visual Studio compiler found - C/C++ compilers most likely not set correctly
File "C:\\Users\\Research\\Desktop\\CBT_pred\\data\\raw\\Run_1\\case_files\\libudf\\win64\\3ddp_node\\SConstruct", line 20, in <module>
Compiler path: "C:\\PROGRA~1\\ANSYSI~1\\v242\\fluent"\\ntbin\\clang\\bin\\clang-cl
Linker   path: "C:\\PROGRA~1\\ANSYSI~1\\v242\\fluent"\\ntbin\\clang\\bin\\lld-link

scons: warning: No version of Visual Studio compiler found - C/C++ compilers most likely not set correctly
File "C:\\Users\\Research\\Desktop\\CBT_pred\\data\\raw\\Run_1\\case_files\\libudf\\win64\\3ddp_node\\SConstruct", line 156, in <module>
C sources: ['case1_parametrized.c']

Done.

BME-BANER-01: Opening library "C:\\Users\\Research\\Desktop\\CBT_pred\\data\\raw\\Run_1\\case_files\\libudf"...
Done.

BME-BANER-01: Opening library "C:\\Users\\Research\\Desktop\\CBT_pred\\data\\raw\\Run_1\\case_files\\libudf"...
	head_source
	organ_source
	muscle_source
	blood_temperature
	convection_heat_transfer
Done.

Building...
     mesh
	distributing mesh
		pairs....,
		parts....,
		faces....,
		nodes....,
		shadow nodes....,
		cells....,
        bandwidth reduction using Reverse Cuthill-McKee: 14875/334 = 44.5359
     materials,
     interface,
     domains,
	mixture
     zones,
	interior-part-muscle
	interior-part-head
	interior-part-organs
	wall-part-head
	wall-part-muscle
	interior-part-head-part-muscle
	interior-part-muscle-part-organs
	interior-part-head-part-muscle-shadow
	interior-part-muscle-part-organs-shadow
	part-head
	part-muscle
	part-organs
     parallel,
Done.

Reading journal file C:\Users\Research\Desktop\CBT_pred\data\raw\Run_1\case_files\change_parameter.log...

> /file/set-tui-version "24.1"

> (cx-gui-do cx-set-list-tree-selections "NavigationPane*Frame2*Table1*List_Tree2" (list "Parameters & Customization|Parameters|Input Parameters"))



> (cx-gui-do cx-set-list-tree-selections "NavigationPane*Frame2*Table1*List_Tree2" (list "Parameters & Customization|Parameters|Input Parameters"))



> (cx-gui-do cx-activate-item "NavigationPane*Frame2*Table1*List_Tree2")



> (cx-gui-do cx-set-list-tree-selections "NavigationPane*Frame2*Table1*List_Tree2" (list "Parameters & Customization|Parameters|Input Parameters"))



> (cx-gui-do cx-set-list-selections "Parameters*Table1*Table1*List1(Input Parameters)" '( 8))



> (cx-gui-do cx-activate-item "Parameters*Table1*Table1*List1(Input Parameters)")



> (cx-gui-do cx-activate-item "Parameters*Table1*Table1*Table2*PushButton1(Edit)")
(cx-gui-do cx-activate-tab-index "Expression*Table1*Frame1" 0)
(cx-gui-do cx-activate-tab-index "Expression*Table1*Frame1" 1)
(cx-gui-do cx-activate-tab-index "Expression*Table1*Frame1" 0)

(cx-gui-do cx-activate-tab-index "Expression*Table1*Frame1" 0)

Error: cx-name-to-id: cannot find widget:
Error Object: "Expression*Table1*Frame1"

(cx-gui-do cx-activate-tab-index "Expression*Table1*Frame1" 1)

Error: cx-name-to-id: cannot find widget:
Error Object: "Expression*Table1*Frame1"

(cx-gui-do cx-activate-tab-index "Expression*Table1*Frame1" 0)

Error: cx-name-to-id: cannot find widget:
Error Object: "Expression*Table1*Frame1"

(cx-gui-do cx-set-expression-entry "Parameter Expression*Table1*ExpressionEntry3(Definition)" '("9668.3671875[W/m^3]" . 1))

(cx-gui-do cx-activate-item "Parameter Expression*Table1*ExpressionEntry3(Definition)")

(cx-gui-do cx-activate-item "Parameter Expression*PanelButtons*PushButton1(OK)")
(cx-gui-do cx-activate-item "Parameter Expression*PanelButtons*PushButton1(OK)")



> (cx-gui-do cx-set-list-selections "Parameters*Table1*Table1*List1(Input Parameters)" '( 9))



> (cx-gui-do cx-activate-item "Parameters*Table1*Table1*List1(Input Parameters)")



> (cx-gui-do cx-activate-item "Parameters*Table1*Table1*Table2*PushButton1(Edit)")

(cx-gui-do cx-set-expression-entry "Parameter Expression*Table1*ExpressionEntry3(Definition)" '("617.860107421875 [W/m^3]" . 1))

(cx-gui-do cx-activate-item "Parameter Expression*Table1*ExpressionEntry3(Definition)")

(cx-gui-do cx-activate-item "Parameter Expression*PanelButtons*PushButton1(OK)")
(cx-gui-do cx-activate-item "Parameter Expression*PanelButtons*PushButton1(OK)")



> (cx-gui-do cx-set-list-selections "Parameters*Table1*Table1*List1(Input Parameters)" '( 10))



> (cx-gui-do cx-activate-item "Parameters*Table1*Table1*List1(Input Parameters)")



> (cx-gui-do cx-activate-item "Parameters*Table1*Table1*Table2*PushButton1(Edit)")

(cx-gui-do cx-set-expression-entry "Parameter Expression*Table1*ExpressionEntry3(Definition)" '("1580.82836914062 [W/m^3]" . 1))

(cx-gui-do cx-activate-item "Parameter Expression*Table1*ExpressionEntry3(Definition)")

(cx-gui-do cx-activate-item "Parameter Expression*PanelButtons*PushButton1(OK)")
(cx-gui-do cx-activate-item "Parameter Expression*PanelButtons*PushButton1(OK)")



> (cx-gui-do cx-set-list-selections "Parameters*Table1*Table1*List1(Input Parameters)" '( 7))



> (cx-gui-do cx-activate-item "Parameters*Table1*Table1*List1(Input Parameters)")



> (cx-gui-do cx-activate-item "Parameters*Table1*Table1*Table2*PushButton1(Edit)")

(cx-gui-do cx-set-expression-entry "Parameter Expression*Table1*ExpressionEntry3(Definition)" '("17.6972885131836 [C]" . 1))

(cx-gui-do cx-activate-item "Parameter Expression*Table1*ExpressionEntry3(Definition)")

(cx-gui-do cx-activate-item "Parameter Expression*PanelButtons*PushButton1(OK)")
(cx-gui-do cx-activate-item "Parameter Expression*PanelButtons*PushButton1(OK)")



> (cx-gui-do cx-set-list-selections "Parameters*Table1*Table1*List1(Input Parameters)" '( 6))



> (cx-gui-do cx-activate-item "Parameters*Table1*Table1*List1(Input Parameters)")



> (cx-gui-do cx-activate-item "Parameters*Table1*Table1*Table2*PushButton1(Edit)")

(cx-gui-do cx-set-expression-entry "Parameter Expression*Table1*ExpressionEntry3(Definition)" '("6.60671663284302 [W/m^2 K]" . 1))

(cx-gui-do cx-activate-item "Parameter Expression*Table1*ExpressionEntry3(Definition)")

(cx-gui-do cx-activate-item "Parameter Expression*PanelButtons*PushButton1(OK)")
(cx-gui-do cx-activate-item "Parameter Expression*PanelButtons*PushButton1(OK)")



> (cx-gui-do cx-activate-item "Parameters*PanelButtons*PushButton1(Close)")
(cx-gui-do cx-activate-item "Parameters*PanelButtons*PushButton1(Close)")



> (cx-gui-do cx-activate-item "MenuBar*WriteSubMenu*Stop Journal")



> 
Reading journal file C:\Users\Research\Desktop\CBT_pred\data\raw\Run_1\case_files\steady_and_transient.log...

> /file/set-tui-version "24.1"

> (cx-gui-do cx-set-list-tree-selections "NavigationPane*Frame2*Table1*List_Tree2" (list "Setup|General"))



> (cx-gui-do cx-set-toggle-button2 "General*Table1*Table2(Solver)*ToggleBox5(Time)*Steady" #t)



> (cx-gui-do cx-activate-item "General*Table1*Table2(Solver)*ToggleBox5(Time)*Steady")
Warning:Instantaneous values of report definitions will be used for "core_temp-rplot" as the "frequency-of" is set to "iteration".
Warning:Instantaneous values of report definitions will be used for "wavg_tiss_temp-rplot" as the "frequency-of" is set to "iteration".
Warning:Instantaneous values of report definitions will be used for "blood_temp-rplot" as the "frequency-of" is set to "iteration".
Warning:Instantaneous values of report definitions will be used for "report-def-0-rplot" as the "frequency-of" is set to "iteration".
Warning:Instantaneous values of report definitions will be used for "report-plot-0" as the "frequency-of" is set to "iteration".
Information: Report Plot(s) core_temp-rplot, wavg_tiss_temp-rplot, blood_temp-rplot, report-def-0-rplot, report-plot-0 updated to get data every iteration.
Information: Report File(s) wavg_tiss_temp-rfile, blood_temp-rfile, core_temp-rfile updated to get data every iteration.


Warning: Removing report definition flow-time from blood_temp-rfile.
Warning: Removing report definition flow-time from core_temp-rfile.
Warning: Removing report definition flow-time from wavg_tiss_temp-rfile.

> (cx-gui-do cx-activate-item "Ribbon*Frame1*Frame5(Solution)*Table1*Table3(Initialization)*PushButton6(Initialize)")
F_t: 298.15
t_skin: 25
conv+sweat: -48.2469
F_t: 298.15
t_skin: 25
conv+sweat: -48.2469
F_t: 298.15
t_skin: 25
conv+sweat: -48.2469
F_t: 298.15
t_skin: 25
conv+sweat: -48.2469
F_t: 298.15
t_skin: 25
conv+sweat: -48.2469
F_t: 298.15
t_skin: 25
conv+sweat: -48.2469
F_t: 298.15
t_skin: 25
conv+sweat: -48.2469
F_t: 298.15
t_skin: 25
conv+sweat: -48.2469
F_t: 298.15
t_skin: 25
conv+sweat: -48.2469
F_t: 298.15
t_skin: 25
conv+sweat: -48.2469
F_t: 298.15
t_skin: 25
conv+sweat: -48.2469
F_t: 298.15
t_skin: 25
conv+sweat: -48.2469
F_t: 298.15
t_skin: 25
conv+sweat: -48.2469
F_t: 298.15
t_skin: 25
conv+sweat: -48.2469
F_t: 298.15
t_skin: 25
conv+sweat: -48.2469
F_t: 298.15
t_skin: 25
conv+sweat: -48.2469
F_t: 298.15
t_skin: 25
conv+sweat: -48.2469
F_t: 298.15
t_skin: 25
conv+sweat: -48.2469
F_t: 298.15
t_skin: 25
conv+sweat: -48.2469
F_t: 298.15
t_skin: 25
conv+sweat: -48.2469
F_t: 298.15
t_skin: 25
conv+sweat: -48.2469
F_t: 298.15
t_skin: 25
conv+sweat: -48.2469
F_t: 298.15
t_skin: 25
conv+sweat: -48.2469
F_t: 298.15
t_skin: 25
conv+sweat: -48.2469
F_t: 298.15
t_skin: 25
conv+sweat: -48.2469
F_t: 298.15
t_skin: 25
conv+sweat: -48.2469
F_t: 298.15
t_skin: 25
conv+sweat: -48.2469
F_t: 298.15
t_skin: 25
conv+sweat: -48.2469
F_t: 298.15
t_skin: 25
conv+sweat: -48.2469
F_t: 298.15
t_skin: 25
conv+sweat: -48.2469
F_t: 298.15
t_skin: 25
conv+sweat: -48.2469
F_t: 298.15
t_skin: 25
conv+sweat: -48.2469
F_t: 298.15
t_skin: 25
conv+sweat: -48.2469
F_t: 298.15
t_skin: 25
conv+sweat: -48.2469
F_t: 298.15
t_skin: 25
conv+sweat: -48.2469
F_t: 298.15
t_skin: 25
conv+sweat: -48.2469
F_t: 298.15
t_skin: 25
conv+sweat: -48.2469
F_t: 298.15
t_skin: 25
conv+sweat: -48.2469
F_t: 298.15
t_skin: 25
conv+sweat: -48.2469
F_t: 298.15
t_skin: 25
conv+sweat: -48.2469
F_t: 298.15
t_skin: 25
conv+sweat: -48.2469
F_t: 298.15
t_skin: 25
conv+sweat: -48.2469
F_t: 298.15
t_skin: 25
conv+sweat: -48.2469
F_t: 298.15
t_skin: 25
conv+sweat: -48.2469
F_t: 298.15
t_skin: 25
conv+sweat: -48.2469
F_t: 298.15
t_skin: 25
conv+sweat: -48.2469
F_t: 298.15
t_skin: 25
conv+sweat: -48.2469
F_t: 298.15
t_skin: 25
conv+sweat: -48.2469
F_t: 298.15
t_skin: 25
conv+sweat: -48.2469
F_t: 298.15
t_skin: 25
conv+sweat: -48.2469
F_t: 298.15
t_skin: 25
conv+sweat: -48.2469
F_t: 298.15
t_skin: 25
conv+sweat: -48.2469
F_t: 298.15
t_skin: 25
conv+sweat: -48.2469
F_t: 298.15
t_skin: 25
conv+sweat: -48.2469
F_t: 298.15
t_skin: 25
conv+sweat: -48.2469
F_t: 298.15
t_skin: 25
conv+sweat: -48.2469
F_t: 298.15
t_skin: 25
conv+sweat: -48.2469
F_t: 298.15
t_skin: 25
conv+sweat: -48.2469
F_t: 298.15
t_skin: 25
conv+sweat: -48.2469
F_t: 298.15
t_skin: 25
conv+sweat: -48.2469
F_t: 298.15
t_skin: 25
conv+sweat: -48.2469
F_t: 298.15
t_skin: 25
conv+sweat: -48.2469
F_t: 298.15
t_skin: 25
conv+sweat: -48.2469
F_t: 298.15
t_skin: 25
conv+sweat: -48.2469
F_t: 298.15
t_skin: 25
conv+sweat: -48.2469
F_t: 298.15
t_skin: 25
conv+sweat: -48.2469
F_t: 298.15
t_skin: 25
conv+sweat: -48.2469
F_t: 298.15
t_skin: 25
conv+sweat: -48.2469
F_t: 298.15
t_skin: 25
conv+sweat: -48.2469
F_t: 298.15
t_skin: 25
conv+sweat: -48.2469
F_t: 298.15
t_skin: 25
conv+sweat: -48.2469
F_t: 298.15
t_skin: 25
conv+sweat: -48.2469
F_t: 298.15
t_skin: 25
conv+sweat: -48.2469
F_t: 298.15
t_skin: 25
conv+sweat: -48.2469
F_t: 298.15
t_skin: 25
conv+sweat: -48.2469
F_t: 298.15
t_skin: 25
conv+sweat: -48.2469
F_t: 298.15
t_skin: 25
conv+sweat: -48.2469
F_t: 298.15
t_skin: 25
conv+sweat: -48.2469
F_t: 298.15
t_skin: 25
conv+sweat: -48.2469
F_t: 298.15
t_skin: 25
conv+sweat: -48.2469
F_t: 298.15
t_skin: 25
conv+sweat: -48.2469
F_t: 298.15
t_skin: 25
conv+sweat: -48.2469
F_t: 298.15
t_skin: 25
conv+sweat: -48.2469
F_t: 298.15
t_skin: 25
conv+sweat: -48.2469
F_t: 298.15
t_skin: 25
conv+sweat: -48.2469
F_t: 298.15
t_skin: 25
conv+sweat: -48.2469
F_t: 298.15
t_skin: 25
conv+sweat: -48.2469
F_t: 298.15
t_skin: 25
conv+sweat: -48.2469
F_t: 298.15
t_skin: 25
conv+sweat: -48.2469
F_t: 298.15
t_skin: 25
conv+sweat: -48.2469
F_t: 298.15
t_skin: 25
conv+sweat: -48.2469
F_t: 298.15
t_skin: 25
conv+sweat: -48.2469
F_t: 298.15
t_skin: 25
conv+sweat: -48.2469
F_t: 298.15
t_skin: 25
conv+sweat: -48.2469
F_t: 298.15
t_skin: 25
conv+sweat: -48.2469
F_t: 298.15
t_skin: 25
conv+sweat: -48.2469
F_t: 298.15
t_skin: 25
conv+sweat: -48.2469
F_t: 298.15
t_skin: 25
conv+sweat: -48.2469
F_t: 298.15
t_skin: 25
conv+sweat: -48.2469
F_t: 298.15
t_skin: 25
conv+sweat: -48.2469
F_t: 298.15
t_skin: 25
conv+sweat: -48.2469
F_t: 298.15
t_skin: 25
conv+sweat: -48.2469
F_t: 298.15
t_skin: 25
conv+sweat: -48.2469
F_t: 298.15
t_skin: 25
conv+sweat: -48.2469
F_t: 298.15
t_skin: 25
conv+sweat: -48.2469
F_t: 298.15
t_skin: 25
conv+sweat: -48.2469
F_t: 298.15
t_skin: 25
conv+sweat: -48.2469
F_t: 298.15
t_skin: 25
conv+sweat: -48.2469
F_t: 298.15
t_skin: 25
conv+sweat: -48.2469
F_t: 298.15
t_skin: 25
conv+sweat: -48.2469
F_t: 298.15
t_skin: 25
conv+sweat: -48.2469
F_t: 298.15
t_skin: 25
conv+sweat: -48.2469
F_t: 298.15
t_skin: 25
conv+sweat: -48.2469
F_t: 298.15
t_skin: 25
conv+sweat: -48.2469
F_t: 298.15
t_skin: 25
conv+sweat: -48.2469
F_t: 298.15
t_skin: 25
conv+sweat: -48.2469
F_t: 298.15
t_skin: 25
conv+sweat: -48.2469
F_t: 298.15
t_skin: 25
conv+sweat: -48.2469
F_t: 298.15
t_skin: 25
conv+sweat: -48.2469
F_t: 298.15
t_skin: 25
conv+sweat: -48.2469
F_t: 298.15
t_skin: 25
conv+sweat: -48.2469
F_t: 298.15
t_skin: 25
conv+sweat: -48.2469
F_t: 298.15
t_skin: 25
conv+sweat: -48.2469
F_t: 298.15
t_skin: 25
conv+sweat: -48.2469
F_t: 298.15
t_skin: 25
conv+sweat: -48.2469
F_t: 298.15
t_skin: 25
conv+sweat: -48.2469
F_t: 298.15
t_skin: 25
conv+sweat: -48.2469
F_t: 298.15
t_skin: 25
conv+sweat: -48.2469
F_t: 298.15
t_skin: 25
conv+sweat: -48.2469
F_t: 298.15
t_skin: 25
conv+sweat: -48.2469
F_t: 298.15
t_skin: 25
conv+sweat: -48.2469
F_t: 298.15
t_skin: 25
conv+sweat: -48.2469
F_t: 298.15
t_skin: 25
conv+sweat: -48.2469
F_t: 298.15
t_skin: 25
conv+sweat: -48.2469
F_t: 298.15
t_skin: 25
conv+sweat: -48.2469
F_t: 298.15
t_skin: 25
conv+sweat: -48.2469
F_t: 298.15
t_skin: 25
conv+sweat: -48.2469
F_t: 298.15
t_skin: 25
conv+sweat: -48.2469
F_t: 298.15
t_skin: 25
conv+sweat: -48.2469
F_t: 298.15
t_skin: 25
conv+sweat: -48.2469
F_t: 298.15
t_skin: 25
conv+sweat: -48.2469
F_t: 298.15
t_skin: 25
conv+sweat: -48.2469
F_t: 298.15
t_skin: 25
conv+sweat: -48.2469
F_t: 298.15
t_skin: 25
conv+sweat: -48.2469
F_t: 298.15
t_skin: 25
conv+sweat: -48.2469
F_t: 298.15
t_skin: 25
conv+sweat: -48.2469
F_t: 298.15
t_skin: 25
conv+sweat: -48.2469
F_t: 298.15
t_skin: 25
conv+sweat: -48.2469
F_t: 298.15
t_skin: 25
conv+sweat: -48.2469
F_t: 298.15
t_skin: 25
conv+sweat: -48.2469
F_t: 298.15
t_skin: 25
conv+sweat: -48.2469
F_t: 298.15
t_skin: 25
conv+sweat: -48.2469
F_t: 298.15
t_skin: 25
conv+sweat: -48.2469
F_t: 298.15
t_skin: 25
conv+sweat: -48.2469
F_t: 298.15
t_skin: 25
conv+sweat: -48.2469
F_t: 298.15
t_skin: 25
conv+sweat: -48.2469
F_t: 298.15
t_skin: 25
conv+sweat: -48.2469
F_t: 298.15
t_skin: 25
conv+sweat: -48.2469
F_t: 298.15
t_skin: 25
conv+sweat: -48.2469
F_t: 298.15
t_skin: 25
conv+sweat: -48.2469
F_t: 298.15
t_skin: 25
conv+sweat: -48.2469
F_t: 298.15
t_skin: 25
conv+sweat: -48.2469
F_t: 298.15
t_skin: 25
conv+sweat: -48.2469
F_t: 298.15
t_skin: 25
conv+sweat: -48.2469
F_t: 298.15
t_skin: 25
conv+sweat: -48.2469
F_t: 298.15
t_skin: 25
conv+sweat: -48.2469
F_t: 298.15
t_skin: 25
conv+sweat: -48.2469
F_t: 298.15
t_skin: 25
conv+sweat: -48.2469
F_t: 298.15
t_skin: 25
conv+sweat: -48.2469
F_t: 298.15
t_skin: 25
conv+sweat: -48.2469
F_t: 298.15
t_skin: 25
conv+sweat: -48.2469
F_t: 298.15
t_skin: 25
conv+sweat: -48.2469
F_t: 298.15
t_skin: 25
conv+sweat: -48.2469
F_t: 298.15
t_skin: 25
conv+sweat: -48.2469
F_t: 298.15
t_skin: 25
conv+sweat: -48.2469
F_t: 298.15
t_skin: 25
conv+sweat: -48.2469
F_t: 298.15
t_skin: 25
conv+sweat: -48.2469
F_t: 298.15
t_skin: 25
conv+sweat: -48.2469
F_t: 298.15
t_skin: 25
conv+sweat: -48.2469
F_t: 298.15
t_skin: 25
conv+sweat: -48.2469
F_t: 298.15
t_skin: 25
conv+sweat: -48.2469
F_t: 298.15
t_skin: 25
conv+sweat: -48.2469
F_t: 298.15
t_skin: 25
conv+sweat: -48.2469
F_t: 298.15
t_skin: 25
conv+sweat: -48.2469
F_t: 298.15
t_skin: 25
conv+sweat: -48.2469
F_t: 298.15
t_skin: 25
conv+sweat: -48.2469
F_t: 298.15
t_skin: 25
conv+sweat: -48.2469
F_t: 298.15
t_skin: 25
conv+sweat: -48.2469
F_t: 298.15
t_skin: 25
conv+sweat: -48.2469
F_t: 298.15
t_skin: 25
conv+sweat: -48.2469
F_t: 298.15
t_skin: 25
conv+sweat: -48.2469
F_t: 298.15
t_skin: 25
conv+sweat: -48.2469
F_t: 298.15
t_skin: 25
conv+sweat: -48.2469
F_t: 298.15
t_skin: 25
conv+sweat: -48.2469
F_t: 298.15
t_skin: 25
conv+sweat: -48.2469
F_t: 298.15
t_skin: 25
conv+sweat: -48.2469
F_t: 298.15
t_skin: 25
conv+sweat: -48.2469
F_t: 298.15
t_skin: 25
conv+sweat: -48.2469
F_t: 298.15
t_skin: 25
conv+sweat: -48.2469
F_t: 298.15
t_skin: 25
conv+sweat: -48.2469
F_t: 298.15
t_skin: 25
conv+sweat: -48.2469
F_t: 298.15
t_skin: 25
conv+sweat: -48.2469
F_t: 298.15
t_skin: 25
conv+sweat: -48.2469
F_t: 298.15
t_skin: 25
conv+sweat: -48.2469
F_t: 298.15
t_skin: 25
conv+sweat: -48.2469
F_t: 298.15
t_skin: 25
conv+sweat: -48.2469
F_t: 298.15
t_skin: 25
conv+sweat: -48.2469
F_t: 298.15
t_skin: 25
conv+sweat: -48.2469
F_t: 298.15
t_skin: 25
conv+sweat: -48.2469
F_t: 298.15
t_skin: 25
conv+sweat: -48.2469
F_t: 298.15
t_skin: 25
conv+sweat: -48.2469
F_t: 298.15
t_skin: 25
conv+sweat: -48.2469
F_t: 298.15
t_skin: 25
conv+sweat: -48.2469
F_t: 298.15
t_skin: 25
conv+sweat: -48.2469
F_t: 298.15
t_skin: 25
conv+sweat: -48.2469
F_t: 298.15
t_skin: 25
conv+sweat: -48.2469
F_t: 298.15
t_skin: 25
conv+sweat: -48.2469
F_t: 298.15
t_skin: 25
conv+sweat: -48.2469
F_t: 298.15
t_skin: 25
conv+sweat: -48.2469
F_t: 298.15
t_skin: 25
conv+sweat: -48.2469
F_t: 298.15
t_skin: 25
conv+sweat: -48.2469
F_t: 298.15
t_skin: 25
conv+sweat: -48.2469
F_t: 298.15
t_skin: 25
conv+sweat: -48.2469
F_t: 298.15
t_skin: 25
conv+sweat: -48.2469
F_t: 298.15
t_skin: 25
conv+sweat: -48.2469
F_t: 298.15
t_skin: 25
conv+sweat: -48.2469
F_t: 298.15
t_skin: 25
conv+sweat: -48.2469
F_t: 298.15
t_skin: 25
conv+sweat: -48.2469
F_t: 298.15
t_skin: 25
conv+sweat: -48.2469
F_t: 298.15
t_skin: 25
conv+sweat: -48.2469
F_t: 298.15
t_skin: 25
conv+sweat: -48.2469
F_t: 298.15
t_skin: 25
conv+sweat: -48.2469
F_t: 298.15
t_skin: 25
conv+sweat: -48.2469
F_t: 298.15
t_skin: 25
conv+sweat: -48.2469
F_t: 298.15
t_skin: 25
conv+sweat: -48.2469
F_t: 298.15
t_skin: 25
conv+sweat: -48.2469
F_t: 298.15
t_skin: 25
conv+sweat: -48.2469
F_t: 298.15
t_skin: 25
conv+sweat: -48.2469
F_t: 298.15
t_skin: 25
conv+sweat: -48.2469
F_t: 298.15
t_skin: 25
conv+sweat: -48.2469
F_t: 298.15
t_skin: 25
conv+sweat: -48.2469
F_t: 298.15
t_skin: 25
conv+sweat: -48.2469
F_t: 298.15
t_skin: 25
conv+sweat: -48.2469
F_t: 298.15
t_skin: 25
conv+sweat: -48.2469
F_t: 298.15
t_skin: 25
conv+sweat: -48.2469
F_t: 298.15
t_skin: 25
conv+sweat: -48.2469
F_t: 298.15
t_skin: 25
conv+sweat: -48.2469
F_t: 298.15
t_skin: 25
conv+sweat: -48.2469
F_t: 298.15
t_skin: 25
conv+sweat: -48.2469
F_t: 298.15
t_skin: 25
conv+sweat: -48.2469
F_t: 298.15
t_skin: 25
conv+sweat: -48.2469
F_t: 298.15
t_skin: 25
conv+sweat: -48.2469
F_t: 298.15
t_skin: 25
conv+sweat: -48.2469
F_t: 298.15
t_skin: 25
conv+sweat: -48.2469
F_t: 298.15
t_skin: 25
conv+sweat: -48.2469
F_t: 298.15
t_skin: 25
conv+sweat: -48.2469
F_t: 298.15
t_skin: 25
conv+sweat: -48.2469
F_t: 298.15
t_skin: 25
conv+sweat: -48.2469
F_t: 298.15
t_skin: 25
conv+sweat: -48.2469
F_t: 298.15
t_skin: 25
conv+sweat: -48.2469
F_t: 298.15
t_skin: 25
conv+sweat: -48.2469
F_t: 298.15
t_skin: 25
conv+sweat: -48.2469
F_t: 298.15
t_skin: 25
conv+sweat: -48.2469
F_t: 298.15
t_skin: 25
conv+sweat: -48.2469
F_t: 298.15
t_skin: 25
conv+sweat: -48.2469
F_t: 298.15
t_skin: 25
conv+sweat: -48.2469
F_t: 298.15
t_skin: 25
conv+sweat: -48.2469
F_t: 298.15
t_skin: 25
conv+sweat: -48.2469
F_t: 298.15
t_skin: 25
conv+sweat: -48.2469
F_t: 298.15
t_skin: 25
conv+sweat: -48.2469
F_t: 298.15
t_skin: 25
conv+sweat: -48.2469
F_t: 298.15
t_skin: 25
conv+sweat: -48.2469
F_t: 298.15
t_skin: 25
conv+sweat: -48.2469
F_t: 298.15
t_skin: 25
conv+sweat: -48.2469
F_t: 298.15
t_skin: 25
conv+sweat: -48.2469
F_t: 298.15
t_skin: 25
conv+sweat: -48.2469
F_t: 298.15
t_skin: 25
conv+sweat: -48.2469
F_t: 298.15
t_skin: 25
conv+sweat: -48.2469
F_t: 298.15
t_skin: 25
conv+sweat: -48.2469
F_t: 298.15
t_skin: 25
conv+sweat: -48.2469
F_t: 298.15
t_skin: 25
conv+sweat: -48.2469
F_t: 298.15
t_skin: 25
conv+sweat: -48.2469
F_t: 298.15
t_skin: 25
conv+sweat: -48.2469
F_t: 298.15
t_skin: 25
conv+sweat: -48.2469
F_t: 298.15
t_skin: 25
conv+sweat: -48.2469
F_t: 298.15
t_skin: 25
conv+sweat: -48.2469
F_t: 298.15
t_skin: 25
conv+sweat: -48.2469
F_t: 298.15
t_skin: 25
conv+sweat: -48.2469
F_t: 298.15
t_skin: 25
conv+sweat: -48.2469
F_t: 298.15
t_skin: 25
conv+sweat: -48.2469
F_t: 298.15
t_skin: 25
conv+sweat: -48.2469
F_t: 298.15
t_skin: 25
conv+sweat: -48.2469
F_t: 298.15
t_skin: 25
conv+sweat: -48.2469
F_t: 298.15
t_skin: 25
conv+sweat: -48.2469
F_t: 298.15
t_skin: 25
conv+sweat: -48.2469
F_t: 298.15
t_skin: 25
conv+sweat: -48.2469
F_t: 298.15
t_skin: 25
conv+sweat: -48.2469
F_t: 298.15
t_skin: 25
conv+sweat: -48.2469
F_t: 298.15
t_skin: 25
conv+sweat: -48.2469
F_t: 298.15
t_skin: 25
conv+sweat: -48.2469
F_t: 298.15
t_skin: 25
conv+sweat: -48.2469
F_t: 298.15
t_skin: 25
conv+sweat: -48.2469
F_t: 298.15
t_skin: 25
conv+sweat: -48.2469
F_t: 298.15
t_skin: 25
conv+sweat: -48.2469
F_t: 298.15
t_skin: 25
conv+sweat: -48.2469
F_t: 298.15
t_skin: 25
conv+sweat: -48.2469
F_t: 298.15
t_skin: 25
conv+sweat: -48.2469
F_t: 298.15
t_skin: 25
conv+sweat: -48.2469
F_t: 298.15
t_skin: 25
conv+sweat: -48.2469
F_t: 298.15
t_skin: 25
conv+sweat: -48.2469
F_t: 298.15
t_skin: 25
conv+sweat: -48.2469
F_t: 298.15
t_skin: 25
conv+sweat: -48.2469
F_t: 298.15
t_skin: 25
conv+sweat: -48.2469
F_t: 298.15
t_skin: 25
conv+sweat: -48.2469
F_t: 298.15
t_skin: 25
conv+sweat: -48.2469
F_t: 298.15
t_skin: 25
conv+sweat: -48.2469
F_t: 298.15
t_skin: 25
conv+sweat: -48.2469
F_t: 298.15
t_skin: 25
conv+sweat: -48.2469
F_t: 298.15
t_skin: 25
conv+sweat: -48.2469
F_t: 298.15
t_skin: 25
conv+sweat: -48.2469
F_t: 298.15
t_skin: 25
conv+sweat: -48.2469
F_t: 298.15
t_skin: 25
conv+sweat: -48.2469
F_t: 298.15
t_skin: 25
conv+sweat: -48.2469
F_t: 298.15
t_skin: 25
conv+sweat: -48.2469
F_t: 298.15
t_skin: 25
conv+sweat: -48.2469
F_t: 298.15
t_skin: 25
conv+sweat: -48.2469
F_t: 298.15
t_skin: 25
conv+sweat: -48.2469
F_t: 298.15
t_skin: 25
conv+sweat: -48.2469
F_t: 298.15
t_skin: 25
conv+sweat: -48.2469
F_t: 298.15
t_skin: 25
conv+sweat: -48.2469
F_t: 298.15
t_skin: 25
conv+sweat: -48.2469
F_t: 298.15
t_skin: 25
conv+sweat: -48.2469
F_t: 298.15
t_skin: 25
conv+sweat: -48.2469
F_t: 298.15
t_skin: 25
conv+sweat: -48.2469
F_t: 298.15
t_skin: 25
conv+sweat: -48.2469
F_t: 298.15
t_skin: 25
conv+sweat: -48.2469
F_t: 298.15
t_skin: 25
conv+sweat: -48.2469
F_t: 298.15
t_skin: 25
conv+sweat: -48.2469
F_t: 298.15
t_skin: 25
conv+sweat: -48.2469
F_t: 298.15
t_skin: 25
conv+sweat: -48.2469
F_t: 298.15
t_skin: 25
conv+sweat: -48.2469
F_t: 298.15
t_skin: 25
conv+sweat: -48.2469
F_t: 298.15
t_skin: 25
conv+sweat: -48.2469
F_t: 298.15
t_skin: 25
conv+sweat: -48.2469
F_t: 298.15
t_skin: 25
conv+sweat: -48.2469
F_t: 298.15
t_skin: 25
conv+sweat: -48.2469
F_t: 298.15
t_skin: 25
conv+sweat: -48.2469
F_t: 298.15
t_skin: 25
conv+sweat: -48.2469
F_t: 298.15
t_skin: 25
conv+sweat: -48.2469
F_t: 298.15
t_skin: 25
conv+sweat: -48.2469
F_t: 298.15
t_skin: 25
conv+sweat: -48.2469
F_t: 298.15
t_skin: 25
conv+sweat: -48.2469
F_t: 298.15
t_skin: 25
conv+sweat: -48.2469
F_t: 298.15
t_skin: 25
conv+sweat: -48.2469
F_t: 298.15
t_skin: 25
conv+sweat: -48.2469
F_t: 298.15
t_skin: 25
conv+sweat: -48.2469
F_t: 298.15
t_skin: 25
conv+sweat: -48.2469
F_t: 298.15
t_skin: 25
conv+sweat: -48.2469
F_t: 298.15
t_skin: 25
conv+sweat: -48.2469
F_t: 298.15
t_skin: 25
conv+sweat: -48.2469
F_t: 298.15
t_skin: 25
conv+sweat: -48.2469
F_t: 298.15
t_skin: 25
conv+sweat: -48.2469
F_t: 298.15
t_skin: 25
conv+sweat: -48.2469
F_t: 298.15
t_skin: 25
conv+sweat: -48.2469
F_t: 298.15
t_skin: 25
conv+sweat: -48.2469
F_t: 298.15
t_skin: 25
conv+sweat: -48.2469
F_t: 298.15
t_skin: 25
conv+sweat: -48.2469
F_t: 298.15
t_skin: 25
conv+sweat: -48.2469
F_t: 298.15
t_skin: 25
conv+sweat: -48.2469
F_t: 298.15
t_skin: 25
conv+sweat: -48.2469
F_t: 298.15
t_skin: 25
conv+sweat: -48.2469
F_t: 298.15
t_skin: 25
conv+sweat: -48.2469
F_t: 298.15
t_skin: 25
conv+sweat: -48.2469
F_t: 298.15
t_skin: 25
conv+sweat: -48.2469
F_t: 298.15
t_skin: 25
conv+sweat: -48.2469
F_t: 298.15
t_skin: 25
conv+sweat: -48.2469
F_t: 298.15
t_skin: 25
conv+sweat: -48.2469
F_t: 298.15
t_skin: 25
conv+sweat: -48.2469
F_t: 298.15
t_skin: 25
conv+sweat: -48.2469
F_t: 298.15
t_skin: 25
conv+sweat: -48.2469
F_t: 298.15
t_skin: 25
conv+sweat: -48.2469
F_t: 298.15
t_skin: 25
conv+sweat: -48.2469
F_t: 298.15
t_skin: 25
conv+sweat: -48.2469
F_t: 298.15
t_skin: 25
conv+sweat: -48.2469
F_t: 298.15
t_skin: 25
conv+sweat: -48.2469
F_t: 298.15
t_skin: 25
conv+sweat: -48.2469
F_t: 298.15
t_skin: 25
conv+sweat: -48.2469
F_t: 298.15
t_skin: 25
conv+sweat: -48.2469
F_t: 298.15
t_skin: 25
conv+sweat: -48.2469
F_t: 298.15
t_skin: 25
conv+sweat: -48.2469
F_t: 298.15
t_skin: 25
conv+sweat: -48.2469
F_t: 298.15
t_skin: 25
conv+sweat: -48.2469
F_t: 298.15
t_skin: 25
conv+sweat: -48.2469
F_t: 298.15
t_skin: 25
conv+sweat: -48.2469
F_t: 298.15
t_skin: 25
conv+sweat: -48.2469
F_t: 298.15
t_skin: 25
conv+sweat: -48.2469
F_t: 298.15
t_skin: 25
conv+sweat: -48.2469
F_t: 298.15
t_skin: 25
conv+sweat: -48.2469
F_t: 298.15
t_skin: 25
conv+sweat: -48.2469
F_t: 298.15
t_skin: 25
conv+sweat: -48.2469
F_t: 298.15
t_skin: 25
conv+sweat: -48.2469
F_t: 298.15
t_skin: 25
conv+sweat: -48.2469
F_t: 298.15
t_skin: 25
conv+sweat: -48.2469
F_t: 298.15
t_skin: 25
conv+sweat: -48.2469
F_t: 298.15
t_skin: 25
conv+sweat: -48.2469
F_t: 298.15
t_skin: 25
conv+sweat: -48.2469
F_t: 298.15
t_skin: 25
conv+sweat: -48.2469
F_t: 298.15
t_skin: 25
conv+sweat: -48.2469
F_t: 298.15
t_skin: 25
conv+sweat: -48.2469
F_t: 298.15
t_skin: 25
conv+sweat: -48.2469
F_t: 298.15
t_skin: 25
conv+sweat: -48.2469
F_t: 298.15
t_skin: 25
conv+sweat: -48.2469
F_t: 298.15
t_skin: 25
conv+sweat: -48.2469
F_t: 298.15
t_skin: 25
conv+sweat: -48.2469
F_t: 298.15
t_skin: 25
conv+sweat: -48.2469
F_t: 298.15
t_skin: 25
conv+sweat: -48.2469
F_t: 298.15
t_skin: 25
conv+sweat: -48.2469
F_t: 298.15
t_skin: 25
conv+sweat: -48.2469
F_t: 298.15
t_skin: 25
conv+sweat: -48.2469
F_t: 298.15
t_skin: 25
conv+sweat: -48.2469
F_t: 298.15
t_skin: 25
conv+sweat: -48.2469
F_t: 298.15
t_skin: 25
conv+sweat: -48.2469
F_t: 298.15
t_skin: 25
conv+sweat: -48.2469
F_t: 298.15
t_skin: 25
conv+sweat: -48.2469
F_t: 298.15
t_skin: 25
conv+sweat: -48.2469
F_t: 298.15
t_skin: 25
conv+sweat: -48.2469
F_t: 298.15
t_skin: 25
conv+sweat: -48.2469
F_t: 298.15
t_skin: 25
conv+sweat: -48.2469
F_t: 298.15
t_skin: 25
conv+sweat: -48.2469
F_t: 298.15
t_skin: 25
conv+sweat: -48.2469
F_t: 298.15
t_skin: 25
conv+sweat: -48.2469
F_t: 298.15
t_skin: 25
conv+sweat: -48.2469
F_t: 298.15
t_skin: 25
conv+sweat: -48.2469
F_t: 298.15
t_skin: 25
conv+sweat: -48.2469
F_t: 298.15
t_skin: 25
conv+sweat: -48.2469
F_t: 298.15
t_skin: 25
conv+sweat: -48.2469
F_t: 298.15
t_skin: 25
conv+sweat: -48.2469
F_t: 298.15
t_skin: 25
conv+sweat: -48.2469
F_t: 298.15
t_skin: 25
conv+sweat: -48.2469
F_t: 298.15
t_skin: 25
conv+sweat: -48.2469
F_t: 298.15
t_skin: 25
conv+sweat: -48.2469
F_t: 298.15
t_skin: 25
conv+sweat: -48.2469
F_t: 298.15
t_skin: 25
conv+sweat: -48.2469
F_t: 298.15
t_skin: 25
conv+sweat: -48.2469
F_t: 298.15
t_skin: 25
conv+sweat: -48.2469
F_t: 298.15
t_skin: 25
conv+sweat: -48.2469
F_t: 298.15
t_skin: 25
conv+sweat: -48.2469
F_t: 298.15
t_skin: 25
conv+sweat: -48.2469
F_t: 298.15
t_skin: 25
conv+sweat: -48.2469
F_t: 298.15
t_skin: 25
conv+sweat: -48.2469
F_t: 298.15
t_skin: 25
conv+sweat: -48.2469
F_t: 298.15
t_skin: 25
conv+sweat: -48.2469
F_t: 298.15
t_skin: 25
conv+sweat: -48.2469
F_t: 298.15
t_skin: 25
conv+sweat: -48.2469
F_t: 298.15
t_skin: 25
conv+sweat: -48.2469
F_t: 298.15
t_skin: 25
conv+sweat: -48.2469
F_t: 298.15
t_skin: 25
conv+sweat: -48.2469
F_t: 298.15
t_skin: 25
conv+sweat: -48.2469
F_t: 298.15
t_skin: 25
conv+sweat: -48.2469
F_t: 298.15
t_skin: 25
conv+sweat: -48.2469
F_t: 298.15
t_skin: 25
conv+sweat: -48.2469
F_t: 298.15
t_skin: 25
conv+sweat: -48.2469
F_t: 298.15
t_skin: 25
conv+sweat: -48.2469
F_t: 298.15
t_skin: 25
conv+sweat: -48.2469
F_t: 298.15
t_skin: 25
conv+sweat: -48.2469
F_t: 298.15
t_skin: 25
conv+sweat: -48.2469
F_t: 298.15
t_skin: 25
conv+sweat: -48.2469
F_t: 298.15
t_skin: 25
conv+sweat: -48.2469
F_t: 298.15
t_skin: 25
conv+sweat: -48.2469
F_t: 298.15
t_skin: 25
conv+sweat: -48.2469
F_t: 298.15
t_skin: 25
conv+sweat: -48.2469
F_t: 298.15
t_skin: 25
conv+sweat: -48.2469
F_t: 298.15
t_skin: 25
conv+sweat: -48.2469
F_t: 298.15
t_skin: 25
conv+sweat: -48.2469
F_t: 298.15
t_skin: 25
conv+sweat: -48.2469
F_t: 298.15
t_skin: 25
conv+sweat: -48.2469
F_t: 298.15
t_skin: 25
conv+sweat: -48.2469
F_t: 298.15
t_skin: 25
conv+sweat: -48.2469
F_t: 298.15
t_skin: 25
conv+sweat: -48.2469
F_t: 298.15
t_skin: 25
conv+sweat: -48.2469
F_t: 298.15
t_skin: 25
conv+sweat: -48.2469
F_t: 298.15
t_skin: 25
conv+sweat: -48.2469
F_t: 298.15
t_skin: 25
conv+sweat: -48.2469
F_t: 298.15
t_skin: 25
conv+sweat: -48.2469
F_t: 298.15
t_skin: 25
conv+sweat: -48.2469
F_t: 298.15
t_skin: 25
conv+sweat: -48.2469
F_t: 298.15
t_skin: 25
conv+sweat: -48.2469
F_t: 298.15
t_skin: 25
conv+sweat: -48.2469
F_t: 298.15
t_skin: 25
conv+sweat: -48.2469
F_t: 298.15
t_skin: 25
conv+sweat: -48.2469
F_t: 298.15
t_skin: 25
conv+sweat: -48.2469
F_t: 298.15
t_skin: 25
conv+sweat: -48.2469
F_t: 298.15
t_skin: 25
conv+sweat: -48.2469
F_t: 298.15
t_skin: 25
conv+sweat: -48.2469
F_t: 298.15
t_skin: 25
conv+sweat: -48.2469
F_t: 298.15
t_skin: 25
conv+sweat: -48.2469
F_t: 298.15
t_skin: 25
conv+sweat: -48.2469
F_t: 298.15
t_skin: 25
conv+sweat: -48.2469
F_t: 298.15
t_skin: 25
conv+sweat: -48.2469
F_t: 298.15
t_skin: 25
conv+sweat: -48.2469
F_t: 298.15
t_skin: 25
conv+sweat: -48.2469
F_t: 298.15
t_skin: 25
conv+sweat: -48.2469
F_t: 298.15
t_skin: 25
conv+sweat: -48.2469
F_t: 298.15
t_skin: 25
conv+sweat: -48.2469
F_t: 298.15
t_skin: 25
conv+sweat: -48.2469
F_t: 298.15
t_skin: 25
conv+sweat: -48.2469
F_t: 298.15
t_skin: 25
conv+sweat: -48.2469
F_t: 298.15
t_skin: 25
conv+sweat: -48.2469
F_t: 298.15
t_skin: 25
conv+sweat: -48.2469
F_t: 298.15
t_skin: 25
conv+sweat: -48.2469
F_t: 298.15
t_skin: 25
conv+sweat: -48.2469
F_t: 298.15
t_skin: 25
conv+sweat: -48.2469
F_t: 298.15
t_skin: 25
conv+sweat: -48.2469
F_t: 298.15
t_skin: 25
conv+sweat: -48.2469
F_t: 298.15
t_skin: 25
conv+sweat: -48.2469
F_t: 298.15
t_skin: 25
conv+sweat: -48.2469
F_t: 298.15
t_skin: 25
conv+sweat: -48.2469
F_t: 298.15
t_skin: 25
conv+sweat: -48.2469
F_t: 298.15
t_skin: 25
conv+sweat: -48.2469
F_t: 298.15
t_skin: 25
conv+sweat: -48.2469
F_t: 298.15
t_skin: 25
conv+sweat: -48.2469
F_t: 298.15
t_skin: 25
conv+sweat: -48.2469
F_t: 298.15
t_skin: 25
conv+sweat: -48.2469
F_t: 298.15
t_skin: 25
conv+sweat: -48.2469
F_t: 298.15
t_skin: 25
conv+sweat: -48.2469
F_t: 298.15
t_skin: 25
conv+sweat: -48.2469
F_t: 298.15
t_skin: 25
conv+sweat: -48.2469
F_t: 298.15
t_skin: 25
conv+sweat: -48.2469
F_t: 298.15
t_skin: 25
conv+sweat: -48.2469
F_t: 298.15
t_skin: 25
conv+sweat: -48.2469
F_t: 298.15
t_skin: 25
conv+sweat: -48.2469
F_t: 298.15
t_skin: 25
conv+sweat: -48.2469
F_t: 298.15
t_skin: 25
conv+sweat: -48.2469
F_t: 298.15
t_skin: 25
conv+sweat: -48.2469
F_t: 298.15
t_skin: 25
conv+sweat: -48.2469
F_t: 298.15
t_skin: 25
conv+sweat: -48.2469
F_t: 298.15
t_skin: 25
conv+sweat: -48.2469
F_t: 298.15
t_skin: 25
conv+sweat: -48.2469
F_t: 298.15
t_skin: 25
conv+sweat: -48.2469
F_t: 298.15
t_skin: 25
conv+sweat: -48.2469
F_t: 298.15
t_skin: 25
conv+sweat: -48.2469
F_t: 298.15
t_skin: 25
conv+sweat: -48.2469
F_t: 298.15
t_skin: 25
conv+sweat: -48.2469
F_t: 298.15
t_skin: 25
conv+sweat: -48.2469
F_t: 298.15
t_skin: 25
conv+sweat: -48.2469
F_t: 298.15
t_skin: 25
conv+sweat: -48.2469
F_t: 298.15
t_skin: 25
conv+sweat: -48.2469
F_t: 298.15
t_skin: 25
conv+sweat: -48.2469
F_t: 298.15
t_skin: 25
conv+sweat: -48.2469
F_t: 298.15
t_skin: 25
conv+sweat: -48.2469
F_t: 298.15
t_skin: 25
conv+sweat: -48.2469
F_t: 298.15
t_skin: 25
conv+sweat: -48.2469
F_t: 298.15
t_skin: 25
conv+sweat: -48.2469
F_t: 298.15
t_skin: 25
conv+sweat: -48.2469
F_t: 298.15
t_skin: 25
conv+sweat: -48.2469
F_t: 298.15
t_skin: 25
conv+sweat: -48.2469
F_t: 298.15
t_skin: 25
conv+sweat: -48.2469
F_t: 298.15
t_skin: 25
conv+sweat: -48.2469
F_t: 298.15
t_skin: 25
conv+sweat: -48.2469
F_t: 298.15
t_skin: 25
conv+sweat: -48.2469
F_t: 298.15
t_skin: 25
conv+sweat: -48.2469
F_t: 298.15
t_skin: 25
conv+sweat: -48.2469
F_t: 298.15
t_skin: 25
conv+sweat: -48.2469
F_t: 298.15
t_skin: 25
conv+sweat: -48.2469
F_t: 298.15
t_skin: 25
conv+sweat: -48.2469
F_t: 298.15
t_skin: 25
conv+sweat: -48.2469
F_t: 298.15
t_skin: 25
conv+sweat: -48.2469
F_t: 298.15
t_skin: 25
conv+sweat: -48.2469
F_t: 298.15
t_skin: 25
conv+sweat: -48.2469
F_t: 298.15
t_skin: 25
conv+sweat: -48.2469
F_t: 298.15
t_skin: 25
conv+sweat: -48.2469
F_t: 298.15
t_skin: 25
conv+sweat: -48.2469
F_t: 298.15
t_skin: 25
conv+sweat: -48.2469
F_t: 298.15
t_skin: 25
conv+sweat: -48.2469
F_t: 298.15
t_skin: 25
conv+sweat: -48.2469
F_t: 298.15
t_skin: 25
conv+sweat: -48.2469
F_t: 298.15
t_skin: 25
conv+sweat: -48.2469
F_t: 298.15
t_skin: 25
conv+sweat: -48.2469
F_t: 298.15
t_skin: 25
conv+sweat: -48.2469
F_t: 298.15
t_skin: 25
conv+sweat: -48.2469
F_t: 298.15
t_skin: 25
conv+sweat: -48.2469
F_t: 298.15
t_skin: 25
conv+sweat: -48.2469
F_t: 298.15
t_skin: 25
conv+sweat: -48.2469
F_t: 298.15
t_skin: 25
conv+sweat: -48.2469
F_t: 298.15
t_skin: 25
conv+sweat: -48.2469
F_t: 298.15
t_skin: 25
conv+sweat: -48.2469
F_t: 298.15
t_skin: 25
conv+sweat: -48.2469
F_t: 298.15
t_skin: 25
conv+sweat: -48.2469
F_t: 298.15
t_skin: 25
conv+sweat: -48.2469
F_t: 298.15
t_skin: 25
conv+sweat: -48.2469
F_t: 298.15
t_skin: 25
conv+sweat: -48.2469
F_t: 298.15
t_skin: 25
conv+sweat: -48.2469
F_t: 298.15
t_skin: 25
conv+sweat: -48.2469
F_t: 298.15
t_skin: 25
conv+sweat: -48.2469
F_t: 298.15
t_skin: 25
conv+sweat: -48.2469
F_t: 298.15
t_skin: 25
conv+sweat: -48.2469
F_t: 298.15
t_skin: 25
conv+sweat: -48.2469
F_t: 298.15
t_skin: 25
conv+sweat: -48.2469
F_t: 298.15
t_skin: 25
conv+sweat: -48.2469
F_t: 298.15
t_skin: 25
conv+sweat: -48.2469
F_t: 298.15
t_skin: 25
conv+sweat: -48.2469
F_t: 298.15
t_skin: 25
conv+sweat: -48.2469
F_t: 298.15
t_skin: 25
conv+sweat: -48.2469
F_t: 298.15
t_skin: 25
conv+sweat: -48.2469
F_t: 298.15
t_skin: 25
conv+sweat: -48.2469
F_t: 298.15
t_skin: 25
conv+sweat: -48.2469
F_t: 298.15
t_skin: 25
conv+sweat: -48.2469
F_t: 298.15
t_skin: 25
conv+sweat: -48.2469
F_t: 298.15
t_skin: 25
conv+sweat: -48.2469
F_t: 298.15
t_skin: 25
conv+sweat: -48.2469
F_t: 298.15
t_skin: 25
conv+sweat: -48.2469
F_t: 298.15
t_skin: 25
conv+sweat: -48.2469
F_t: 298.15
t_skin: 25
conv+sweat: -48.2469
F_t: 298.15
t_skin: 25
conv+sweat: -48.2469
F_t: 298.15
t_skin: 25
conv+sweat: -48.2469
F_t: 298.15
t_skin: 25
conv+sweat: -48.2469
F_t: 298.15
t_skin: 25
conv+sweat: -48.2469
F_t: 298.15
t_skin: 25
conv+sweat: -48.2469
F_t: 298.15
t_skin: 25
conv+sweat: -48.2469
F_t: 298.15
t_skin: 25
conv+sweat: -48.2469
F_t: 298.15
t_skin: 25
conv+sweat: -48.2469
F_t: 298.15
t_skin: 25
conv+sweat: -48.2469
F_t: 298.15
t_skin: 25
conv+sweat: -48.2469
F_t: 298.15
t_skin: 25
conv+sweat: -48.2469
F_t: 298.15
t_skin: 25
conv+sweat: -48.2469
F_t: 298.15
t_skin: 25
conv+sweat: -48.2469
F_t: 298.15
t_skin: 25
conv+sweat: -48.2469
F_t: 298.15
t_skin: 25
conv+sweat: -48.2469
F_t: 298.15
t_skin: 25
conv+sweat: -48.2469
F_t: 298.15
t_skin: 25
conv+sweat: -48.2469
F_t: 298.15
t_skin: 25
conv+sweat: -48.2469
F_t: 298.15
t_skin: 25
conv+sweat: -48.2469
F_t: 298.15
t_skin: 25
conv+sweat: -48.2469
F_t: 298.15
t_skin: 25
conv+sweat: -48.2469
F_t: 298.15
t_skin: 25
conv+sweat: -48.2469
F_t: 298.15
t_skin: 25
conv+sweat: -48.2469
F_t: 298.15
t_skin: 25
conv+sweat: -48.2469
F_t: 298.15
t_skin: 25
conv+sweat: -48.2469
F_t: 298.15
t_skin: 25
conv+sweat: -48.2469
F_t: 298.15
t_skin: 25
conv+sweat: -48.2469
F_t: 298.15
t_skin: 25
conv+sweat: -48.2469
F_t: 298.15
t_skin: 25
conv+sweat: -48.2469
F_t: 298.15
t_skin: 25
conv+sweat: -48.2469
F_t: 298.15
t_skin: 25
conv+sweat: -48.2469
F_t: 298.15
t_skin: 25
conv+sweat: -48.2469
F_t: 298.15
t_skin: 25
conv+sweat: -48.2469
F_t: 298.15
t_skin: 25
conv+sweat: -48.2469
F_t: 298.15
t_skin: 25
conv+sweat: -48.2469
F_t: 298.15
t_skin: 25
conv+sweat: -48.2469
F_t: 298.15
t_skin: 25
conv+sweat: -48.2469
F_t: 298.15
t_skin: 25
conv+sweat: -48.2469
F_t: 298.15
t_skin: 25
conv+sweat: -48.2469
F_t: 298.15
t_skin: 25
conv+sweat: -48.2469
F_t: 298.15
t_skin: 25
conv+sweat: -48.2469
F_t: 298.15
t_skin: 25
conv+sweat: -48.2469
F_t: 298.15
t_skin: 25
conv+sweat: -48.2469
F_t: 298.15
t_skin: 25
conv+sweat: -48.2469
F_t: 298.15
t_skin: 25
conv+sweat: -48.2469
F_t: 298.15
t_skin: 25
conv+sweat: -48.2469
F_t: 298.15
t_skin: 25
conv+sweat: -48.2469
F_t: 298.15
t_skin: 25
conv+sweat: -48.2469
F_t: 298.15
t_skin: 25
conv+sweat: -48.2469
F_t: 298.15
t_skin: 25
conv+sweat: -48.2469
F_t: 298.15
t_skin: 25
conv+sweat: -48.2469
F_t: 298.15
t_skin: 25
conv+sweat: -48.2469
F_t: 298.15
t_skin: 25
conv+sweat: -48.2469
F_t: 298.15
t_skin: 25
conv+sweat: -48.2469
F_t: 298.15
t_skin: 25
conv+sweat: -48.2469
F_t: 298.15
t_skin: 25
conv+sweat: -48.2469
F_t: 298.15
t_skin: 25
conv+sweat: -48.2469
F_t: 298.15
t_skin: 25
conv+sweat: -48.2469
F_t: 298.15
t_skin: 25
conv+sweat: -48.2469
F_t: 298.15
t_skin: 25
conv+sweat: -48.2469
F_t: 298.15
t_skin: 25
conv+sweat: -48.2469
F_t: 298.15
t_skin: 25
conv+sweat: -48.2469
F_t: 298.15
t_skin: 25
conv+sweat: -48.2469
F_t: 298.15
t_skin: 25
conv+sweat: -48.2469
F_t: 298.15
t_skin: 25
conv+sweat: -48.2469
F_t: 298.15
t_skin: 25
conv+sweat: -48.2469
F_t: 298.15
t_skin: 25
conv+sweat: -48.2469
F_t: 298.15
t_skin: 25
conv+sweat: -48.2469
F_t: 298.15
t_skin: 25
conv+sweat: -48.2469
F_t: 298.15
t_skin: 25
conv+sweat: -48.2469
F_t: 298.15
t_skin: 25
conv+sweat: -48.2469
F_t: 298.15
t_skin: 25
conv+sweat: -48.2469
F_t: 298.15
t_skin: 25
conv+sweat: -48.2469
F_t: 298.15
t_skin: 25
conv+sweat: -48.2469
F_t: 298.15
t_skin: 25
conv+sweat: -48.2469
F_t: 298.15
t_skin: 25
conv+sweat: -48.2469
F_t: 298.15
t_skin: 25
conv+sweat: -48.2469
F_t: 298.15
t_skin: 25
conv+sweat: -48.2469
F_t: 298.15
t_skin: 25
conv+sweat: -48.2469
F_t: 298.15
t_skin: 25
conv+sweat: -48.2469
F_t: 298.15
t_skin: 25
conv+sweat: -48.2469
F_t: 298.15
t_skin: 25
conv+sweat: -48.2469
F_t: 298.15
t_skin: 25
conv+sweat: -48.2469
F_t: 298.15
t_skin: 25
conv+sweat: -48.2469
F_t: 298.15
t_skin: 25
conv+sweat: -48.2469
F_t: 298.15
t_skin: 25
conv+sweat: -48.2469
F_t: 298.15
t_skin: 25
conv+sweat: -48.2469
F_t: 298.15
t_skin: 25
conv+sweat: -48.2469
F_t: 298.15
t_skin: 25
conv+sweat: -48.2469
F_t: 298.15
t_skin: 25
conv+sweat: -48.2469
F_t: 298.15
t_skin: 25
conv+sweat: -48.2469
F_t: 298.15
t_skin: 25
conv+sweat: -48.2469
F_t: 298.15
t_skin: 25
conv+sweat: -48.2469
F_t: 298.15
t_skin: 25
conv+sweat: -48.2469
F_t: 298.15
t_skin: 25
conv+sweat: -48.2469
F_t: 298.15
t_skin: 25
conv+sweat: -48.2469
F_t: 298.15
t_skin: 25
conv+sweat: -48.2469
F_t: 298.15
t_skin: 25
conv+sweat: -48.2469
F_t: 298.15
t_skin: 25
conv+sweat: -48.2469
F_t: 298.15
t_skin: 25
conv+sweat: -48.2469
F_t: 298.15
t_skin: 25
conv+sweat: -48.2469
F_t: 298.15
t_skin: 25
conv+sweat: -48.2469
F_t: 298.15
t_skin: 25
conv+sweat: -48.2469
F_t: 298.15
t_skin: 25
conv+sweat: -48.2469
F_t: 298.15
t_skin: 25
conv+sweat: -48.2469
F_t: 298.15
t_skin: 25
conv+sweat: -48.2469
F_t: 298.15
t_skin: 25
conv+sweat: -48.2469
F_t: 298.15
t_skin: 25
conv+sweat: -48.2469
F_t: 298.15
t_skin: 25
conv+sweat: -48.2469
F_t: 298.15
t_skin: 25
conv+sweat: -48.2469
F_t: 298.15
t_skin: 25
conv+sweat: -48.2469
F_t: 298.15
t_skin: 25
conv+sweat: -48.2469
F_t: 298.15
t_skin: 25
conv+sweat: -48.2469
F_t: 298.15
t_skin: 25
conv+sweat: -48.2469
F_t: 298.15
t_skin: 25
conv+sweat: -48.2469
F_t: 298.15
t_skin: 25
conv+sweat: -48.2469
F_t: 298.15
t_skin: 25
conv+sweat: -48.2469
F_t: 298.15
t_skin: 25
conv+sweat: -48.2469
F_t: 298.15
t_skin: 25
conv+sweat: -48.2469
F_t: 298.15
t_skin: 25
conv+sweat: -48.2469
F_t: 298.15
t_skin: 25
conv+sweat: -48.2469
F_t: 298.15
t_skin: 25
conv+sweat: -48.2469
F_t: 298.15
t_skin: 25
conv+sweat: -48.2469
F_t: 298.15
t_skin: 25
conv+sweat: -48.2469
F_t: 298.15
t_skin: 25
conv+sweat: -48.2469
F_t: 298.15
t_skin: 25
conv+sweat: -48.2469
F_t: 298.15
t_skin: 25
conv+sweat: -48.2469
F_t: 298.15
t_skin: 25
conv+sweat: -48.2469
F_t: 298.15
t_skin: 25
conv+sweat: -48.2469
F_t: 298.15
t_skin: 25
conv+sweat: -48.2469
F_t: 298.15
t_skin: 25
conv+sweat: -48.2469
F_t: 298.15
t_skin: 25
conv+sweat: -48.2469
F_t: 298.15
t_skin: 25
conv+sweat: -48.2469
F_t: 298.15
t_skin: 25
conv+sweat: -48.2469
F_t: 298.15
t_skin: 25
conv+sweat: -48.2469
F_t: 298.15
t_skin: 25
conv+sweat: -48.2469
F_t: 298.15
t_skin: 25
conv+sweat: -48.2469
F_t: 298.15
t_skin: 25
conv+sweat: -48.2469
F_t: 298.15
t_skin: 25
conv+sweat: -48.2469
F_t: 298.15
t_skin: 25
conv+sweat: -48.2469
F_t: 298.15
t_skin: 25
conv+sweat: -48.2469
F_t: 298.15
t_skin: 25
conv+sweat: -48.2469
F_t: 298.15
t_skin: 25
conv+sweat: -48.2469
F_t: 298.15
t_skin: 25
conv+sweat: -48.2469
F_t: 298.15
t_skin: 25
conv+sweat: -48.2469
F_t: 298.15
t_skin: 25
conv+sweat: -48.2469
F_t: 298.15
t_skin: 25
conv+sweat: -48.2469
F_t: 298.15
t_skin: 25
conv+sweat: -48.2469
F_t: 298.15
t_skin: 25
conv+sweat: -48.2469
F_t: 298.15
t_skin: 25
conv+sweat: -48.2469
F_t: 298.15
t_skin: 25
conv+sweat: -48.2469
F_t: 298.15
t_skin: 25
conv+sweat: -48.2469
F_t: 298.15
t_skin: 25
conv+sweat: -48.2469
F_t: 298.15
t_skin: 25
conv+sweat: -48.2469
F_t: 298.15
t_skin: 25
conv+sweat: -48.2469
F_t: 298.15
t_skin: 25
conv+sweat: -48.2469
F_t: 298.15
t_skin: 25
conv+sweat: -48.2469
F_t: 298.15
t_skin: 25
conv+sweat: -48.2469
F_t: 298.15
t_skin: 25
conv+sweat: -48.2469
F_t: 298.15
t_skin: 25
conv+sweat: -48.2469
F_t: 298.15
t_skin: 25
conv+sweat: -48.2469
F_t: 298.15
t_skin: 25
conv+sweat: -48.2469
F_t: 298.15
t_skin: 25
conv+sweat: -48.2469
F_t: 298.15
t_skin: 25
conv+sweat: -48.2469
F_t: 298.15
t_skin: 25
conv+sweat: -48.2469
F_t: 298.15
t_skin: 25
conv+sweat: -48.2469
F_t: 298.15
t_skin: 25
conv+sweat: -48.2469
F_t: 298.15
t_skin: 25
conv+sweat: -48.2469
F_t: 298.15
t_skin: 25
conv+sweat: -48.2469
F_t: 298.15
t_skin: 25
conv+sweat: -48.2469
F_t: 298.15
t_skin: 25
conv+sweat: -48.2469
F_t: 298.15
t_skin: 25
conv+sweat: -48.2469
F_t: 298.15
t_skin: 25
conv+sweat: -48.2469
F_t: 298.15
t_skin: 25
conv+sweat: -48.2469
F_t: 298.15
t_skin: 25
conv+sweat: -48.2469
F_t: 298.15
t_skin: 25
conv+sweat: -48.2469
F_t: 298.15
t_skin: 25
conv+sweat: -48.2469
F_t: 298.15
t_skin: 25
conv+sweat: -48.2469
F_t: 298.15
t_skin: 25
conv+sweat: -48.2469
F_t: 298.15
t_skin: 25
conv+sweat: -48.2469
F_t: 298.15
t_skin: 25
conv+sweat: -48.2469
F_t: 298.15
t_skin: 25
conv+sweat: -48.2469
F_t: 298.15
t_skin: 25
conv+sweat: -48.2469
F_t: 298.15
t_skin: 25
conv+sweat: -48.2469
F_t: 298.15
t_skin: 25
conv+sweat: -48.2469
F_t: 298.15
t_skin: 25
conv+sweat: -48.2469
F_t: 298.15
t_skin: 25
conv+sweat: -48.2469
F_t: 298.15
t_skin: 25
conv+sweat: -48.2469
F_t: 298.15
t_skin: 25
conv+sweat: -48.2469
F_t: 298.15
t_skin: 25
conv+sweat: -48.2469
F_t: 298.15
t_skin: 25
conv+sweat: -48.2469
F_t: 298.15
t_skin: 25
conv+sweat: -48.2469
F_t: 298.15
t_skin: 25
conv+sweat: -48.2469
F_t: 298.15
t_skin: 25
conv+sweat: -48.2469
F_t: 298.15
t_skin: 25
conv+sweat: -48.2469
F_t: 298.15
t_skin: 25
conv+sweat: -48.2469
F_t: 298.15
t_skin: 25
conv+sweat: -48.2469
F_t: 298.15
t_skin: 25
conv+sweat: -48.2469
F_t: 298.15
t_skin: 25
conv+sweat: -48.2469
F_t: 298.15
t_skin: 25
conv+sweat: -48.2469
F_t: 298.15
t_skin: 25
conv+sweat: -48.2469
F_t: 298.15
t_skin: 25
conv+sweat: -48.2469
F_t: 298.15
t_skin: 25
conv+sweat: -48.2469
F_t: 298.15
t_skin: 25
conv+sweat: -48.2469
F_t: 298.15
t_skin: 25
conv+sweat: -48.2469
F_t: 298.15
t_skin: 25
conv+sweat: -48.2469
F_t: 298.15
t_skin: 25
conv+sweat: -48.2469
F_t: 298.15
t_skin: 25
conv+sweat: -48.2469
F_t: 298.15
t_skin: 25
conv+sweat: -48.2469
F_t: 298.15
t_skin: 25
conv+sweat: -48.2469
F_t: 298.15
t_skin: 25
conv+sweat: -48.2469
F_t: 298.15
t_skin: 25
conv+sweat: -48.2469
F_t: 298.15
t_skin: 25
conv+sweat: -48.2469
F_t: 298.15
t_skin: 25
conv+sweat: -48.2469
F_t: 298.15
t_skin: 25
conv+sweat: -48.2469
F_t: 298.15
t_skin: 25
conv+sweat: -48.2469
F_t: 298.15
t_skin: 25
conv+sweat: -48.2469
F_t: 298.15
t_skin: 25
conv+sweat: -48.2469
F_t: 298.15
t_skin: 25
conv+sweat: -48.2469
F_t: 298.15
t_skin: 25
conv+sweat: -48.2469
F_t: 298.15
t_skin: 25
conv+sweat: -48.2469
F_t: 298.15
t_skin: 25
conv+sweat: -48.2469
F_t: 298.15
t_skin: 25
conv+sweat: -48.2469
F_t: 298.15
t_skin: 25
conv+sweat: -48.2469
F_t: 298.15
t_skin: 25
conv+sweat: -48.2469
F_t: 298.15
t_skin: 25
conv+sweat: -48.2469
F_t: 298.15
t_skin: 25
conv+sweat: -48.2469
F_t: 298.15
t_skin: 25
conv+sweat: -48.2469
F_t: 298.15
t_skin: 25
conv+sweat: -48.2469
F_t: 298.15
t_skin: 25
conv+sweat: -48.2469
F_t: 298.15
t_skin: 25
conv+sweat: -48.2469
F_t: 298.15
t_skin: 25
conv+sweat: -48.2469
F_t: 298.15
t_skin: 25
conv+sweat: -48.2469
F_t: 298.15
t_skin: 25
conv+sweat: -48.2469
F_t: 298.15
t_skin: 25
conv+sweat: -48.2469
F_t: 298.15
t_skin: 25
conv+sweat: -48.2469
F_t: 298.15
t_skin: 25
conv+sweat: -48.2469
F_t: 298.15
t_skin: 25
conv+sweat: -48.2469
F_t: 298.15
t_skin: 25
conv+sweat: -48.2469
F_t: 298.15
t_skin: 25
conv+sweat: -48.2469
F_t: 298.15
t_skin: 25
conv+sweat: -48.2469
F_t: 298.15
t_skin: 25
conv+sweat: -48.2469
F_t: 298.15
t_skin: 25
conv+sweat: -48.2469
F_t: 298.15
t_skin: 25
conv+sweat: -48.2469
F_t: 298.15
t_skin: 25
conv+sweat: -48.2469
F_t: 298.15
t_skin: 25
conv+sweat: -48.2469
F_t: 298.15
t_skin: 25
conv+sweat: -48.2469
F_t: 298.15
t_skin: 25
conv+sweat: -48.2469
F_t: 298.15
t_skin: 25
conv+sweat: -48.2469
F_t: 298.15
t_skin: 25
conv+sweat: -48.2469
F_t: 298.15
t_skin: 25
conv+sweat: -48.2469
F_t: 298.15
t_skin: 25
conv+sweat: -48.2469
F_t: 298.15
t_skin: 25
conv+sweat: -48.2469
F_t: 298.15
t_skin: 25
conv+sweat: -48.2469
F_t: 298.15
t_skin: 25
conv+sweat: -48.2469
F_t: 298.15
t_skin: 25
conv+sweat: -48.2469
F_t: 298.15
t_skin: 25
conv+sweat: -48.2469
F_t: 298.15
t_skin: 25
conv+sweat: -48.2469
F_t: 298.15
t_skin: 25
conv+sweat: -48.2469
F_t: 298.15
t_skin: 25
conv+sweat: -48.2469
F_t: 298.15
t_skin: 25
conv+sweat: -48.2469
F_t: 298.15
t_skin: 25
conv+sweat: -48.2469
F_t: 298.15
t_skin: 25
conv+sweat: -48.2469
F_t: 298.15
t_skin: 25
conv+sweat: -48.2469
F_t: 298.15
t_skin: 25
conv+sweat: -48.2469
F_t: 298.15
t_skin: 25
conv+sweat: -48.2469
F_t: 298.15
t_skin: 25
conv+sweat: -48.2469
F_t: 298.15
t_skin: 25
conv+sweat: -48.2469
F_t: 298.15
t_skin: 25
conv+sweat: -48.2469
F_t: 298.15
t_skin: 25
conv+sweat: -48.2469
F_t: 298.15
t_skin: 25
conv+sweat: -48.2469
F_t: 298.15
t_skin: 25
conv+sweat: -48.2469
F_t: 298.15
t_skin: 25
conv+sweat: -48.2469
F_t: 298.15
t_skin: 25
conv+sweat: -48.2469
F_t: 298.15
t_skin: 25
conv+sweat: -48.2469
F_t: 298.15
t_skin: 25
conv+sweat: -48.2469
F_t: 298.15
t_skin: 25
conv+sweat: -48.2469
F_t: 298.15
t_skin: 25
conv+sweat: -48.2469
F_t: 298.15
t_skin: 25
conv+sweat: -48.2469
F_t: 298.15
t_skin: 25
conv+sweat: -48.2469
F_t: 298.15
t_skin: 25
conv+sweat: -48.2469
F_t: 298.15
t_skin: 25
conv+sweat: -48.2469
F_t: 298.15
t_skin: 25
conv+sweat: -48.2469
F_t: 298.15
t_skin: 25
conv+sweat: -48.2469
F_t: 298.15
t_skin: 25
conv+sweat: -48.2469
F_t: 298.15
t_skin: 25
conv+sweat: -48.2469
F_t: 298.15
t_skin: 25
conv+sweat: -48.2469
F_t: 298.15
t_skin: 25
conv+sweat: -48.2469
F_t: 298.15
t_skin: 25
conv+sweat: -48.2469
F_t: 298.15
t_skin: 25
conv+sweat: -48.2469
F_t: 298.15
t_skin: 25
conv+sweat: -48.2469
F_t: 298.15
t_skin: 25
conv+sweat: -48.2469
F_t: 298.15
t_skin: 25
conv+sweat: -48.2469
F_t: 298.15
t_skin: 25
conv+sweat: -48.2469
F_t: 298.15
t_skin: 25
conv+sweat: -48.2469
F_t: 298.15
t_skin: 25
conv+sweat: -48.2469
F_t: 298.15
t_skin: 25
conv+sweat: -48.2469
F_t: 298.15
t_skin: 25
conv+sweat: -48.2469
F_t: 298.15
t_skin: 25
conv+sweat: -48.2469
F_t: 298.15
t_skin: 25
conv+sweat: -48.2469
F_t: 298.15
t_skin: 25
conv+sweat: -48.2469
F_t: 298.15
t_skin: 25
conv+sweat: -48.2469
F_t: 298.15
t_skin: 25
conv+sweat: -48.2469
F_t: 298.15
t_skin: 25
conv+sweat: -48.2469
F_t: 298.15
t_skin: 25
conv+sweat: -48.2469
F_t: 298.15
t_skin: 25
conv+sweat: -48.2469
F_t: 298.15
t_skin: 25
conv+sweat: -48.2469
F_t: 298.15
t_skin: 25
conv+sweat: -48.2469
F_t: 298.15
t_skin: 25
conv+sweat: -48.2469
F_t: 298.15
t_skin: 25
conv+sweat: -48.2469
F_t: 298.15
t_skin: 25
conv+sweat: -48.2469
F_t: 298.15
t_skin: 25
conv+sweat: -48.2469
F_t: 298.15
t_skin: 25
conv+sweat: -48.2469
F_t: 298.15
t_skin: 25
conv+sweat: -48.2469
F_t: 298.15
t_skin: 25
conv+sweat: -48.2469
F_t: 298.15
t_skin: 25
conv+sweat: -48.2469
F_t: 298.15
t_skin: 25
conv+sweat: -48.2469
F_t: 298.15
t_skin: 25
conv+sweat: -48.2469
F_t: 298.15
t_skin: 25
conv+sweat: -48.2469
F_t: 298.15
t_skin: 25
conv+sweat: -48.2469
F_t: 298.15
t_skin: 25
conv+sweat: -48.2469
F_t: 298.15
t_skin: 25
conv+sweat: -48.2469
F_t: 298.15
t_skin: 25
conv+sweat: -48.2469
F_t: 298.15
t_skin: 25
conv+sweat: -48.2469
F_t: 298.15
t_skin: 25
conv+sweat: -48.2469
F_t: 298.15
t_skin: 25
conv+sweat: -48.2469
F_t: 298.15
t_skin: 25
conv+sweat: -48.2469
F_t: 298.15
t_skin: 25
conv+sweat: -48.2469
F_t: 298.15
t_skin: 25
conv+sweat: -48.2469
F_t: 298.15
t_skin: 25
conv+sweat: -48.2469
F_t: 298.15
t_skin: 25
conv+sweat: -48.2469
F_t: 298.15
t_skin: 25
conv+sweat: -48.2469
F_t: 298.15
t_skin: 25
conv+sweat: -48.2469
F_t: 298.15
t_skin: 25
conv+sweat: -48.2469
F_t: 298.15
t_skin: 25
conv+sweat: -48.2469
F_t: 298.15
t_skin: 25
conv+sweat: -48.2469
F_t: 298.15
t_skin: 25
conv+sweat: -48.2469
F_t: 298.15
t_skin: 25
conv+sweat: -48.2469
F_t: 298.15
t_skin: 25
conv+sweat: -48.2469
F_t: 298.15
t_skin: 25
conv+sweat: -48.2469
F_t: 298.15
t_skin: 25
conv+sweat: -48.2469
F_t: 298.15
t_skin: 25
conv+sweat: -48.2469
F_t: 298.15
t_skin: 25
conv+sweat: -48.2469
F_t: 298.15
t_skin: 25
conv+sweat: -48.2469
F_t: 298.15
t_skin: 25
conv+sweat: -48.2469
F_t: 298.15
t_skin: 25
conv+sweat: -48.2469
F_t: 298.15
t_skin: 25
conv+sweat: -48.2469
F_t: 298.15
t_skin: 25
conv+sweat: -48.2469
F_t: 298.15
t_skin: 25
conv+sweat: -48.2469
F_t: 298.15
t_skin: 25
conv+sweat: -48.2469
F_t: 298.15
t_skin: 25
conv+sweat: -48.2469
F_t: 298.15
t_skin: 25
conv+sweat: -48.2469
F_t: 298.15
t_skin: 25
conv+sweat: -48.2469
F_t: 298.15
t_skin: 25
conv+sweat: -48.2469
F_t: 298.15
t_skin: 25
conv+sweat: -48.2469
F_t: 298.15
t_skin: 25
conv+sweat: -48.2469
F_t: 298.15
t_skin: 25
conv+sweat: -48.2469
F_t: 298.15
t_skin: 25
conv+sweat: -48.2469
F_t: 298.15
t_skin: 25
conv+sweat: -48.2469
F_t: 298.15
t_skin: 25
conv+sweat: -48.2469
F_t: 298.15
t_skin: 25
conv+sweat: -48.2469
F_t: 298.15
t_skin: 25
conv+sweat: -48.2469
F_t: 298.15
t_skin: 25
conv+sweat: -48.2469
F_t: 298.15
t_skin: 25
conv+sweat: -48.2469
F_t: 298.15
t_skin: 25
conv+sweat: -48.2469
F_t: 298.15
t_skin: 25
conv+sweat: -48.2469
F_t: 298.15
t_skin: 25
conv+sweat: -48.2469
F_t: 298.15
t_skin: 25
conv+sweat: -48.2469
F_t: 298.15
t_skin: 25
conv+sweat: -48.2469
F_t: 298.15
t_skin: 25
conv+sweat: -48.2469
F_t: 298.15
t_skin: 25
conv+sweat: -48.2469
F_t: 298.15
t_skin: 25
conv+sweat: -48.2469
F_t: 298.15
t_skin: 25
conv+sweat: -48.2469
F_t: 298.15
t_skin: 25
conv+sweat: -48.2469
F_t: 298.15
t_skin: 25
conv+sweat: -48.2469
F_t: 298.15
t_skin: 25
conv+sweat: -48.2469
F_t: 298.15
t_skin: 25
conv+sweat: -48.2469
F_t: 298.15
t_skin: 25
conv+sweat: -48.2469
F_t: 298.15
t_skin: 25
conv+sweat: -48.2469
F_t: 298.15
t_skin: 25
conv+sweat: -48.2469
F_t: 298.15
t_skin: 25
conv+sweat: -48.2469
F_t: 298.15
t_skin: 25
conv+sweat: -48.2469
F_t: 298.15
t_skin: 25
conv+sweat: -48.2469
F_t: 298.15
t_skin: 25
conv+sweat: -48.2469
F_t: 298.15
t_skin: 25
conv+sweat: -48.2469
F_t: 298.15
t_skin: 25
conv+sweat: -48.2469
F_t: 298.15
t_skin: 25
conv+sweat: -48.2469
F_t: 298.15
t_skin: 25
conv+sweat: -48.2469
F_t: 298.15
t_skin: 25
conv+sweat: -48.2469
F_t: 298.15
t_skin: 25
conv+sweat: -48.2469
F_t: 298.15
t_skin: 25
conv+sweat: -48.2469
F_t: 298.15
t_skin: 25
conv+sweat: -48.2469
F_t: 298.15
t_skin: 25
conv+sweat: -48.2469
F_t: 298.15
t_skin: 25
conv+sweat: -48.2469
F_t: 298.15
t_skin: 25
conv+sweat: -48.2469
F_t: 298.15
t_skin: 25
conv+sweat: -48.2469
F_t: 298.15
t_skin: 25
conv+sweat: -48.2469
F_t: 298.15
t_skin: 25
conv+sweat: -48.2469
F_t: 298.15
t_skin: 25
conv+sweat: -48.2469
F_t: 298.15
t_skin: 25
conv+sweat: -48.2469
F_t: 298.15
t_skin: 25
conv+sweat: -48.2469
F_t: 298.15
t_skin: 25
conv+sweat: -48.2469
F_t: 298.15
t_skin: 25
conv+sweat: -48.2469
F_t: 298.15
t_skin: 25
conv+sweat: -48.2469
F_t: 298.15
t_skin: 25
conv+sweat: -48.2469
F_t: 298.15
t_skin: 25
conv+sweat: -48.2469
F_t: 298.15
t_skin: 25
conv+sweat: -48.2469
F_t: 298.15
t_skin: 25
conv+sweat: -48.2469
F_t: 298.15
t_skin: 25
conv+sweat: -48.2469
F_t: 298.15
t_skin: 25
conv+sweat: -48.2469
F_t: 298.15
t_skin: 25
conv+sweat: -48.2469
F_t: 298.15
t_skin: 25
conv+sweat: -48.2469
F_t: 298.15
t_skin: 25
conv+sweat: -48.2469
F_t: 298.15
t_skin: 25
conv+sweat: -48.2469
F_t: 298.15
t_skin: 25
conv+sweat: -48.2469
F_t: 298.15
t_skin: 25
conv+sweat: -48.2469
F_t: 298.15
t_skin: 25
conv+sweat: -48.2469
F_t: 298.15
t_skin: 25
conv+sweat: -48.2469
F_t: 298.15
t_skin: 25
conv+sweat: -48.2469
F_t: 298.15
t_skin: 25
conv+sweat: -48.2469
F_t: 298.15
t_skin: 25
conv+sweat: -48.2469
F_t: 298.15
t_skin: 25
conv+sweat: -48.2469
F_t: 298.15
t_skin: 25
conv+sweat: -48.2469
F_t: 298.15
t_skin: 25
conv+sweat: -48.2469
F_t: 298.15
t_skin: 25
conv+sweat: -48.2469
F_t: 298.15
t_skin: 25
conv+sweat: -48.2469
F_t: 298.15
t_skin: 25
conv+sweat: -48.2469
F_t: 298.15
t_skin: 25
conv+sweat: -48.2469
F_t: 298.15
t_skin: 25
conv+sweat: -48.2469
F_t: 298.15
t_skin: 25
conv+sweat: -48.2469
F_t: 298.15
t_skin: 25
conv+sweat: -48.2469
F_t: 298.15
t_skin: 25
conv+sweat: -48.2469
F_t: 298.15
t_skin: 25
conv+sweat: -48.2469
F_t: 298.15
t_skin: 25
conv+sweat: -48.2469
F_t: 298.15
t_skin: 25
conv+sweat: -48.2469
F_t: 298.15
t_skin: 25
conv+sweat: -48.2469
F_t: 298.15
t_skin: 25
conv+sweat: -48.2469
F_t: 298.15
t_skin: 25
conv+sweat: -48.2469
F_t: 298.15
t_skin: 25
conv+sweat: -48.2469
F_t: 298.15
t_skin: 25
conv+sweat: -48.2469
F_t: 298.15
t_skin: 25
conv+sweat: -48.2469
F_t: 298.15
t_skin: 25
conv+sweat: -48.2469
F_t: 298.15
t_skin: 25
conv+sweat: -48.2469
F_t: 298.15
t_skin: 25
conv+sweat: -48.2469
F_t: 298.15
t_skin: 25
conv+sweat: -48.2469
F_t: 298.15
t_skin: 25
conv+sweat: -48.2469
F_t: 298.15
t_skin: 25
conv+sweat: -48.2469
F_t: 298.15
t_skin: 25
conv+sweat: -48.2469
F_t: 298.15
t_skin: 25
conv+sweat: -48.2469
F_t: 298.15
t_skin: 25
conv+sweat: -48.2469
F_t: 298.15
t_skin: 25
conv+sweat: -48.2469
F_t: 298.15
t_skin: 25
conv+sweat: -48.2469
F_t: 298.15
t_skin: 25
conv+sweat: -48.2469
F_t: 298.15
t_skin: 25
conv+sweat: -48.2469
F_t: 298.15
t_skin: 25
conv+sweat: -48.2469
F_t: 298.15
t_skin: 25
conv+sweat: -48.2469
F_t: 298.15
t_skin: 25
conv+sweat: -48.2469
F_t: 298.15
t_skin: 25
conv+sweat: -48.2469
F_t: 298.15
t_skin: 25
conv+sweat: -48.2469
F_t: 298.15
t_skin: 25
conv+sweat: -48.2469
F_t: 298.15
t_skin: 25
conv+sweat: -48.2469
F_t: 298.15
t_skin: 25
conv+sweat: -48.2469
F_t: 298.15
t_skin: 25
conv+sweat: -48.2469
F_t: 298.15
t_skin: 25
conv+sweat: -48.2469
F_t: 298.15
t_skin: 25
conv+sweat: -48.2469
F_t: 298.15
t_skin: 25
conv+sweat: -48.2469
F_t: 298.15
t_skin: 25
conv+sweat: -48.2469
F_t: 298.15
t_skin: 25
conv+sweat: -48.2469
F_t: 298.15
t_skin: 25
conv+sweat: -48.2469
F_t: 298.15
t_skin: 25
conv+sweat: -48.2469
F_t: 298.15
t_skin: 25
conv+sweat: -48.2469
F_t: 298.15
t_skin: 25
conv+sweat: -48.2469
F_t: 298.15
t_skin: 25
conv+sweat: -48.2469
F_t: 298.15
t_skin: 25
conv+sweat: -48.2469
F_t: 298.15
t_skin: 25
conv+sweat: -48.2469
F_t: 298.15
t_skin: 25
conv+sweat: -48.2469
F_t: 298.15
t_skin: 25
conv+sweat: -48.2469
F_t: 298.15
t_skin: 25
conv+sweat: -48.2469
F_t: 298.15
t_skin: 25
conv+sweat: -48.2469
F_t: 298.15
t_skin: 25
conv+sweat: -48.2469
F_t: 298.15
t_skin: 25
conv+sweat: -48.2469
F_t: 298.15
t_skin: 25
conv+sweat: -48.2469
F_t: 298.15
t_skin: 25
conv+sweat: -48.2469
F_t: 298.15
t_skin: 25
conv+sweat: -48.2469
F_t: 298.15
t_skin: 25
conv+sweat: -48.2469
F_t: 298.15
t_skin: 25
conv+sweat: -48.2469
F_t: 298.15
t_skin: 25
conv+sweat: -48.2469
F_t: 298.15
t_skin: 25
conv+sweat: -48.2469
F_t: 298.15
t_skin: 25
conv+sweat: -48.2469
F_t: 298.15
t_skin: 25
conv+sweat: -48.2469
F_t: 298.15
t_skin: 25
conv+sweat: -48.2469
F_t: 298.15
t_skin: 25
conv+sweat: -48.2469
F_t: 298.15
t_skin: 25
conv+sweat: -48.2469
F_t: 298.15
t_skin: 25
conv+sweat: -48.2469
F_t: 298.15
t_skin: 25
conv+sweat: -48.2469
F_t: 298.15
t_skin: 25
conv+sweat: -48.2469
F_t: 298.15
t_skin: 25
conv+sweat: -48.2469
F_t: 298.15
t_skin: 25
conv+sweat: -48.2469
F_t: 298.15
t_skin: 25
conv+sweat: -48.2469
F_t: 298.15
t_skin: 25
conv+sweat: -48.2469
F_t: 298.15
t_skin: 25
conv+sweat: -48.2469
F_t: 298.15
t_skin: 25
conv+sweat: -48.2469
F_t: 298.15
t_skin: 25
conv+sweat: -48.2469
F_t: 298.15
t_skin: 25
conv+sweat: -48.2469
F_t: 298.15
t_skin: 25
conv+sweat: -48.2469
F_t: 298.15
t_skin: 25
conv+sweat: -48.2469
F_t: 298.15
t_skin: 25
conv+sweat: -48.2469
F_t: 298.15
t_skin: 25
conv+sweat: -48.2469
F_t: 298.15
t_skin: 25
conv+sweat: -48.2469
F_t: 298.15
t_skin: 25
conv+sweat: -48.2469
F_t: 298.15
t_skin: 25
conv+sweat: -48.2469
F_t: 298.15
t_skin: 25
conv+sweat: -48.2469
F_t: 298.15
t_skin: 25
conv+sweat: -48.2469
F_t: 298.15
t_skin: 25
conv+sweat: -48.2469
F_t: 298.15
t_skin: 25
conv+sweat: -48.2469
F_t: 298.15
t_skin: 25
conv+sweat: -48.2469
F_t: 298.15
t_skin: 25
conv+sweat: -48.2469
F_t: 298.15
t_skin: 25
conv+sweat: -48.2469
F_t: 298.15
t_skin: 25
conv+sweat: -48.2469
F_t: 298.15
t_skin: 25
conv+sweat: -48.2469
F_t: 298.15
t_skin: 25
conv+sweat: -48.2469
F_t: 298.15
t_skin: 25
conv+sweat: -48.2469
F_t: 298.15
t_skin: 25
conv+sweat: -48.2469
F_t: 298.15
t_skin: 25
conv+sweat: -48.2469
F_t: 298.15
t_skin: 25
conv+sweat: -48.2469
F_t: 298.15
t_skin: 25
conv+sweat: -48.2469
F_t: 298.15
t_skin: 25
conv+sweat: -48.2469
F_t: 298.15
t_skin: 25
conv+sweat: -48.2469
F_t: 298.15
t_skin: 25
conv+sweat: -48.2469
F_t: 298.15
t_skin: 25
conv+sweat: -48.2469
F_t: 298.15
t_skin: 25
conv+sweat: -48.2469
F_t: 298.15
t_skin: 25
conv+sweat: -48.2469
F_t: 298.15
t_skin: 25
conv+sweat: -48.2469
F_t: 298.15
t_skin: 25
conv+sweat: -48.2469
F_t: 298.15
t_skin: 25
conv+sweat: -48.2469
F_t: 298.15
t_skin: 25
conv+sweat: -48.2469
F_t: 298.15
t_skin: 25
conv+sweat: -48.2469
F_t: 298.15
t_skin: 25
conv+sweat: -48.2469
F_t: 298.15
t_skin: 25
conv+sweat: -48.2469
F_t: 298.15
t_skin: 25
conv+sweat: -48.2469
F_t: 298.15
t_skin: 25
conv+sweat: -48.2469
F_t: 298.15
t_skin: 25
conv+sweat: -48.2469
F_t: 298.15
t_skin: 25
conv+sweat: -48.2469
F_t: 298.15
t_skin: 25
conv+sweat: -48.2469
F_t: 298.15
t_skin: 25
conv+sweat: -48.2469
F_t: 298.15
t_skin: 25
conv+sweat: -48.2469
F_t: 298.15
t_skin: 25
conv+sweat: -48.2469
F_t: 298.15
t_skin: 25
conv+sweat: -48.2469
F_t: 298.15
t_skin: 25
conv+sweat: -48.2469
F_t: 298.15
t_skin: 25
conv+sweat: -48.2469
F_t: 298.15
t_skin: 25
conv+sweat: -48.2469
F_t: 298.15
t_skin: 25
conv+sweat: -48.2469
F_t: 298.15
t_skin: 25
conv+sweat: -48.2469
F_t: 298.15
t_skin: 25
conv+sweat: -48.2469
F_t: 298.15
t_skin: 25
conv+sweat: -48.2469
F_t: 298.15
t_skin: 25
conv+sweat: -48.2469
F_t: 298.15
t_skin: 25
conv+sweat: -48.2469
F_t: 298.15
t_skin: 25
conv+sweat: -48.2469
F_t: 298.15
t_skin: 25
conv+sweat: -48.2469
F_t: 298.15
t_skin: 25
conv+sweat: -48.2469
F_t: 298.15
t_skin: 25
conv+sweat: -48.2469
F_t: 298.15
t_skin: 25
conv+sweat: -48.2469
F_t: 298.15
t_skin: 25
conv+sweat: -48.2469
F_t: 298.15
t_skin: 25
conv+sweat: -48.2469
F_t: 298.15
t_skin: 25
conv+sweat: -48.2469
F_t: 298.15
t_skin: 25
conv+sweat: -48.2469
F_t: 298.15
t_skin: 25
conv+sweat: -48.2469
F_t: 298.15
t_skin: 25
conv+sweat: -48.2469
F_t: 298.15
t_skin: 25
conv+sweat: -48.2469
F_t: 298.15
t_skin: 25
conv+sweat: -48.2469
F_t: 298.15
t_skin: 25
conv+sweat: -48.2469
F_t: 298.15
t_skin: 25
conv+sweat: -48.2469
F_t: 298.15
t_skin: 25
conv+sweat: -48.2469
F_t: 298.15
t_skin: 25
conv+sweat: -48.2469
F_t: 298.15
t_skin: 25
conv+sweat: -48.2469
F_t: 298.15
t_skin: 25
conv+sweat: -48.2469
F_t: 298.15
t_skin: 25
conv+sweat: -48.2469
F_t: 298.15
t_skin: 25
conv+sweat: -48.2469
F_t: 298.15
t_skin: 25
conv+sweat: -48.2469
F_t: 298.15
t_skin: 25
conv+sweat: -48.2469
F_t: 298.15
t_skin: 25
conv+sweat: -48.2469
F_t: 298.15
t_skin: 25
conv+sweat: -48.2469
F_t: 298.15
t_skin: 25
conv+sweat: -48.2469
F_t: 298.15
t_skin: 25
conv+sweat: -48.2469
F_t: 298.15
t_skin: 25
conv+sweat: -48.2469
F_t: 298.15
t_skin: 25
conv+sweat: -48.2469
F_t: 298.15
t_skin: 25
conv+sweat: -48.2469
F_t: 298.15
t_skin: 25
conv+sweat: -48.2469
F_t: 298.15
t_skin: 25
conv+sweat: -48.2469
F_t: 298.15
t_skin: 25
conv+sweat: -48.2469
F_t: 298.15
t_skin: 25
conv+sweat: -48.2469
F_t: 298.15
t_skin: 25
conv+sweat: -48.2469
F_t: 298.15
t_skin: 25
conv+sweat: -48.2469
F_t: 298.15
t_skin: 25
conv+sweat: -48.2469
F_t: 298.15
t_skin: 25
conv+sweat: -48.2469
F_t: 298.15
t_skin: 25
conv+sweat: -48.2469
F_t: 298.15
t_skin: 25
conv+sweat: -48.2469
F_t: 298.15
t_skin: 25
conv+sweat: -48.2469
F_t: 298.15
t_skin: 25
conv+sweat: -48.2469
F_t: 298.15
t_skin: 25
conv+sweat: -48.2469
F_t: 298.15
t_skin: 25
conv+sweat: -48.2469
F_t: 298.15
t_skin: 25
conv+sweat: -48.2469
F_t: 298.15
t_skin: 25
conv+sweat: -48.2469
F_t: 298.15
t_skin: 25
conv+sweat: -48.2469
F_t: 298.15
t_skin: 25
conv+sweat: -48.2469
F_t: 298.15
t_skin: 25
conv+sweat: -48.2469
F_t: 298.15
t_skin: 25
conv+sweat: -48.2469
F_t: 298.15
t_skin: 25
conv+sweat: -48.2469
F_t: 298.15
t_skin: 25
conv+sweat: -48.2469
F_t: 298.15
t_skin: 25
conv+sweat: -48.2469
F_t: 298.15
t_skin: 25
conv+sweat: -48.2469
F_t: 298.15
t_skin: 25
conv+sweat: -48.2469
F_t: 298.15
t_skin: 25
conv+sweat: -48.2469
F_t: 298.15
t_skin: 25
conv+sweat: -48.2469
F_t: 298.15
t_skin: 25
conv+sweat: -48.2469
F_t: 298.15
t_skin: 25
conv+sweat: -48.2469
F_t: 298.15
t_skin: 25
conv+sweat: -48.2469
F_t: 298.15
t_skin: 25
conv+sweat: -48.2469
F_t: 298.15
t_skin: 25
conv+sweat: -48.2469
F_t: 298.15
t_skin: 25
conv+sweat: -48.2469
F_t: 298.15
t_skin: 25
conv+sweat: -48.2469
F_t: 298.15
t_skin: 25
conv+sweat: -48.2469
F_t: 298.15
t_skin: 25
conv+sweat: -48.2469
F_t: 298.15
t_skin: 25
conv+sweat: -48.2469
F_t: 298.15
t_skin: 25
conv+sweat: -48.2469
F_t: 298.15
t_skin: 25
conv+sweat: -48.2469
F_t: 298.15
t_skin: 25
conv+sweat: -48.2469
F_t: 298.15
t_skin: 25
conv+sweat: -48.2469
F_t: 298.15
t_skin: 25
conv+sweat: -48.2469
F_t: 298.15
t_skin: 25
conv+sweat: -48.2469
F_t: 298.15
t_skin: 25
conv+sweat: -48.2469
F_t: 298.15
t_skin: 25
conv+sweat: -48.2469
F_t: 298.15
t_skin: 25
conv+sweat: -48.2469
F_t: 298.15
t_skin: 25
conv+sweat: -48.2469
F_t: 298.15
t_skin: 25
conv+sweat: -48.2469
F_t: 298.15
t_skin: 25
conv+sweat: -48.2469
F_t: 298.15
t_skin: 25
conv+sweat: -48.2469
F_t: 298.15
t_skin: 25
conv+sweat: -48.2469
F_t: 298.15
t_skin: 25
conv+sweat: -48.2469
F_t: 298.15
t_skin: 25
conv+sweat: -48.2469
F_t: 298.15
t_skin: 25
conv+sweat: -48.2469
F_t: 298.15
t_skin: 25
conv+sweat: -48.2469
F_t: 298.15
t_skin: 25
conv+sweat: -48.2469
F_t: 298.15
t_skin: 25
conv+sweat: -48.2469
F_t: 298.15
t_skin: 25
conv+sweat: -48.2469
F_t: 298.15
t_skin: 25
conv+sweat: -48.2469
F_t: 298.15
t_skin: 25
conv+sweat: -48.2469
F_t: 298.15
t_skin: 25
conv+sweat: -48.2469
F_t: 298.15
t_skin: 25
conv+sweat: -48.2469
F_t: 298.15
t_skin: 25
conv+sweat: -48.2469
F_t: 298.15
t_skin: 25
conv+sweat: -48.2469
F_t: 298.15
t_skin: 25
conv+sweat: -48.2469
F_t: 298.15
t_skin: 25
conv+sweat: -48.2469
F_t: 298.15
t_skin: 25
conv+sweat: -48.2469
F_t: 298.15
t_skin: 25
conv+sweat: -48.2469
F_t: 298.15
t_skin: 25
conv+sweat: -48.2469
F_t: 298.15
t_skin: 25
conv+sweat: -48.2469
F_t: 298.15
t_skin: 25
conv+sweat: -48.2469
F_t: 298.15
t_skin: 25
conv+sweat: -48.2469
F_t: 298.15
t_skin: 25
conv+sweat: -48.2469
F_t: 298.15
t_skin: 25
conv+sweat: -48.2469
F_t: 298.15
t_skin: 25
conv+sweat: -48.2469
F_t: 298.15
t_skin: 25
conv+sweat: -48.2469
F_t: 298.15
t_skin: 25
conv+sweat: -48.2469
F_t: 298.15
t_skin: 25
conv+sweat: -48.2469
F_t: 298.15
t_skin: 25
conv+sweat: -48.2469
F_t: 298.15
t_skin: 25
conv+sweat: -48.2469
F_t: 298.15
t_skin: 25
conv+sweat: -48.2469
F_t: 298.15
t_skin: 25
conv+sweat: -48.2469
F_t: 298.15
t_skin: 25
conv+sweat: -48.2469
F_t: 298.15
t_skin: 25
conv+sweat: -48.2469
F_t: 298.15
t_skin: 25
conv+sweat: -48.2469
F_t: 298.15
t_skin: 25
conv+sweat: -48.2469
F_t: 298.15
t_skin: 25
conv+sweat: -48.2469
F_t: 298.15
t_skin: 25
conv+sweat: -48.2469
F_t: 298.15
t_skin: 25
conv+sweat: -48.2469
F_t: 298.15
t_skin: 25
conv+sweat: -48.2469
F_t: 298.15
t_skin: 25
conv+sweat: -48.2469
F_t: 298.15
t_skin: 25
conv+sweat: -48.2469
F_t: 298.15
t_skin: 25
conv+sweat: -48.2469
F_t: 298.15
t_skin: 25
conv+sweat: -48.2469
F_t: 298.15
t_skin: 25
conv+sweat: -48.2469
F_t: 298.15
t_skin: 25
conv+sweat: -48.2469
F_t: 298.15
t_skin: 25
conv+sweat: -48.2469
F_t: 298.15
t_skin: 25
conv+sweat: -48.2469
F_t: 298.15
t_skin: 25
conv+sweat: -48.2469
F_t: 298.15
t_skin: 25
conv+sweat: -48.2469
F_t: 298.15
t_skin: 25
conv+sweat: -48.2469
F_t: 298.15
t_skin: 25
conv+sweat: -48.2469
F_t: 298.15
t_skin: 25
conv+sweat: -48.2469
F_t: 298.15
t_skin: 25
conv+sweat: -48.2469
F_t: 298.15
t_skin: 25
conv+sweat: -48.2469
F_t: 298.15
t_skin: 25
conv+sweat: -48.2469
F_t: 298.15
t_skin: 25
conv+sweat: -48.2469
F_t: 298.15
t_skin: 25
conv+sweat: -48.2469
F_t: 298.15
t_skin: 25
conv+sweat: -48.2469
F_t: 298.15
t_skin: 25
conv+sweat: -48.2469
F_t: 298.15
t_skin: 25
conv+sweat: -48.2469
F_t: 298.15
t_skin: 25
conv+sweat: -48.2469
F_t: 298.15
t_skin: 25
conv+sweat: -48.2469
F_t: 298.15
t_skin: 25
conv+sweat: -48.2469
F_t: 298.15
t_skin: 25
conv+sweat: -48.2469
F_t: 298.15
t_skin: 25
conv+sweat: -48.2469
F_t: 298.15
t_skin: 25
conv+sweat: -48.2469
F_t: 298.15
t_skin: 25
conv+sweat: -48.2469
F_t: 298.15
t_skin: 25
conv+sweat: -48.2469
F_t: 298.15
t_skin: 25
conv+sweat: -48.2469
F_t: 298.15
t_skin: 25
conv+sweat: -48.2469
F_t: 298.15
t_skin: 25
conv+sweat: -48.2469
F_t: 298.15
t_skin: 25
conv+sweat: -48.2469
F_t: 298.15
t_skin: 25
conv+sweat: -48.2469
F_t: 298.15
t_skin: 25
conv+sweat: -48.2469
F_t: 298.15
t_skin: 25
conv+sweat: -48.2469
F_t: 298.15
t_skin: 25
conv+sweat: -48.2469
F_t: 298.15
t_skin: 25
conv+sweat: -48.2469
F_t: 298.15
t_skin: 25
conv+sweat: -48.2469
F_t: 298.15
t_skin: 25
conv+sweat: -48.2469
F_t: 298.15
t_skin: 25
conv+sweat: -48.2469
F_t: 298.15
t_skin: 25
conv+sweat: -48.2469
F_t: 298.15
t_skin: 25
conv+sweat: -48.2469
F_t: 298.15
t_skin: 25
conv+sweat: -48.2469
F_t: 298.15
t_skin: 25
conv+sweat: -48.2469
F_t: 298.15
t_skin: 25
conv+sweat: -48.2469
F_t: 298.15
t_skin: 25
conv+sweat: -48.2469
F_t: 298.15
t_skin: 25
conv+sweat: -48.2469
F_t: 298.15
t_skin: 25
conv+sweat: -48.2469
F_t: 298.15
t_skin: 25
conv+sweat: -48.2469
F_t: 298.15
t_skin: 25
conv+sweat: -48.2469
F_t: 298.15
t_skin: 25
conv+sweat: -48.2469
F_t: 298.15
t_skin: 25
conv+sweat: -48.2469
F_t: 298.15
t_skin: 25
conv+sweat: -48.2469
F_t: 298.15
t_skin: 25
conv+sweat: -48.2469
F_t: 298.15
t_skin: 25
conv+sweat: -48.2469
F_t: 298.15
t_skin: 25
conv+sweat: -48.2469
F_t: 298.15
t_skin: 25
conv+sweat: -48.2469
F_t: 298.15
t_skin: 25
conv+sweat: -48.2469
F_t: 298.15
t_skin: 25
conv+sweat: -48.2469
F_t: 298.15
t_skin: 25
conv+sweat: -48.2469
F_t: 298.15
t_skin: 25
conv+sweat: -48.2469
F_t: 298.15
t_skin: 25
conv+sweat: -48.2469
F_t: 298.15
t_skin: 25
conv+sweat: -48.2469
F_t: 298.15
t_skin: 25
conv+sweat: -48.2469
F_t: 298.15
t_skin: 25
conv+sweat: -48.2469
F_t: 298.15
t_skin: 25
conv+sweat: -48.2469
F_t: 298.15
t_skin: 25
conv+sweat: -48.2469
F_t: 298.15
t_skin: 25
conv+sweat: -48.2469
F_t: 298.15
t_skin: 25
conv+sweat: -48.2469
F_t: 298.15
t_skin: 25
conv+sweat: -48.2469
F_t: 298.15
t_skin: 25
conv+sweat: -48.2469
F_t: 298.15
t_skin: 25
conv+sweat: -48.2469
F_t: 298.15
t_skin: 25
conv+sweat: -48.2469
F_t: 298.15
t_skin: 25
conv+sweat: -48.2469
F_t: 298.15
t_skin: 25
conv+sweat: -48.2469
F_t: 298.15
t_skin: 25
conv+sweat: -48.2469
F_t: 298.15
t_skin: 25
conv+sweat: -48.2469
F_t: 298.15
t_skin: 25
conv+sweat: -48.2469
F_t: 298.15
t_skin: 25
conv+sweat: -48.2469
F_t: 298.15
t_skin: 25
conv+sweat: -48.2469
F_t: 298.15
t_skin: 25
conv+sweat: -48.2469
F_t: 298.15
t_skin: 25
conv+sweat: -48.2469
F_t: 298.15
t_skin: 25
conv+sweat: -48.2469
F_t: 298.15
t_skin: 25
conv+sweat: -48.2469
F_t: 298.15
t_skin: 25
conv+sweat: -48.2469
F_t: 298.15
t_skin: 25
conv+sweat: -48.2469
F_t: 298.15
t_skin: 25
conv+sweat: -48.2469
F_t: 298.15
t_skin: 25
conv+sweat: -48.2469
F_t: 298.15
t_skin: 25
conv+sweat: -48.2469
F_t: 298.15
t_skin: 25
conv+sweat: -48.2469
F_t: 298.15
t_skin: 25
conv+sweat: -48.2469
F_t: 298.15
t_skin: 25
conv+sweat: -48.2469
F_t: 298.15
t_skin: 25
conv+sweat: -48.2469
F_t: 298.15
t_skin: 25
conv+sweat: -48.2469
F_t: 298.15
t_skin: 25
conv+sweat: -48.2469
F_t: 298.15
t_skin: 25
conv+sweat: -48.2469
F_t: 298.15
t_skin: 25
conv+sweat: -48.2469
F_t: 298.15
t_skin: 25
conv+sweat: -48.2469
F_t: 298.15
t_skin: 25
conv+sweat: -48.2469
F_t: 298.15
t_skin: 25
conv+sweat: -48.2469
F_t: 298.15
t_skin: 25
conv+sweat: -48.2469
F_t: 298.15
t_skin: 25
conv+sweat: -48.2469
F_t: 298.15
t_skin: 25
conv+sweat: -48.2469
F_t: 298.15
t_skin: 25
conv+sweat: -48.2469
F_t: 298.15
t_skin: 25
conv+sweat: -48.2469
F_t: 298.15
t_skin: 25
conv+sweat: -48.2469
F_t: 298.15
t_skin: 25
conv+sweat: -48.2469
F_t: 298.15
t_skin: 25
conv+sweat: -48.2469
F_t: 298.15
t_skin: 25
conv+sweat: -48.2469
F_t: 298.15
t_skin: 25
conv+sweat: -48.2469
F_t: 298.15
t_skin: 25
conv+sweat: -48.2469
F_t: 298.15
t_skin: 25
conv+sweat: -48.2469
F_t: 298.15
t_skin: 25
conv+sweat: -48.2469
F_t: 298.15
t_skin: 25
conv+sweat: -48.2469
F_t: 298.15
t_skin: 25
conv+sweat: -48.2469
F_t: 298.15
t_skin: 25
conv+sweat: -48.2469
F_t: 298.15
t_skin: 25
conv+sweat: -48.2469
F_t: 298.15
t_skin: 25
conv+sweat: -48.2469
F_t: 298.15
t_skin: 25
conv+sweat: -48.2469
F_t: 298.15
t_skin: 25
conv+sweat: -48.2469
F_t: 298.15
t_skin: 25
conv+sweat: -48.2469
F_t: 298.15
t_skin: 25
conv+sweat: -48.2469
F_t: 298.15
t_skin: 25
conv+sweat: -48.2469
F_t: 298.15
t_skin: 25
conv+sweat: -48.2469
F_t: 298.15
t_skin: 25
conv+sweat: -48.2469
F_t: 298.15
t_skin: 25
conv+sweat: -48.2469
F_t: 298.15
t_skin: 25
conv+sweat: -48.2469
F_t: 298.15
t_skin: 25
conv+sweat: -48.2469
F_t: 298.15
t_skin: 25
conv+sweat: -48.2469
F_t: 298.15
t_skin: 25
conv+sweat: -48.2469
F_t: 298.15
t_skin: 25
conv+sweat: -48.2469
F_t: 298.15
t_skin: 25
conv+sweat: -48.2469
F_t: 298.15
t_skin: 25
conv+sweat: -48.2469
F_t: 298.15
t_skin: 25
conv+sweat: -48.2469
F_t: 298.15
t_skin: 25
conv+sweat: -48.2469
F_t: 298.15
t_skin: 25
conv+sweat: -48.2469
F_t: 298.15
t_skin: 25
conv+sweat: -48.2469
F_t: 298.15
t_skin: 25
conv+sweat: -48.2469
F_t: 298.15
t_skin: 25
conv+sweat: -48.2469
F_t: 298.15
t_skin: 25
conv+sweat: -48.2469
F_t: 298.15
t_skin: 25
conv+sweat: -48.2469
F_t: 298.15
t_skin: 25
conv+sweat: -48.2469
F_t: 298.15
t_skin: 25
conv+sweat: -48.2469
F_t: 298.15
t_skin: 25
conv+sweat: -48.2469
F_t: 298.15
t_skin: 25
conv+sweat: -48.2469
F_t: 298.15
t_skin: 25
conv+sweat: -48.2469
F_t: 298.15
t_skin: 25
conv+sweat: -48.2469
F_t: 298.15
t_skin: 25
conv+sweat: -48.2469
F_t: 298.15
t_skin: 25
conv+sweat: -48.2469
F_t: 298.15
t_skin: 25
conv+sweat: -48.2469
F_t: 298.15
t_skin: 25
conv+sweat: -48.2469
F_t: 298.15
t_skin: 25
conv+sweat: -48.2469
F_t: 298.15
t_skin: 25
conv+sweat: -48.2469
F_t: 298.15
t_skin: 25
conv+sweat: -48.2469
F_t: 298.15
t_skin: 25
conv+sweat: -48.2469
F_t: 298.15
t_skin: 25
conv+sweat: -48.2469
F_t: 298.15
t_skin: 25
conv+sweat: -48.2469
F_t: 298.15
t_skin: 25
conv+sweat: -48.2469
F_t: 298.15
t_skin: 25
conv+sweat: -48.2469
F_t: 298.15
t_skin: 25
conv+sweat: -48.2469
F_t: 298.15
t_skin: 25
conv+sweat: -48.2469
F_t: 298.15
t_skin: 25
conv+sweat: -48.2469
F_t: 298.15
t_skin: 25
conv+sweat: -48.2469
F_t: 298.15
t_skin: 25
conv+sweat: -48.2469
F_t: 298.15
t_skin: 25
conv+sweat: -48.2469
F_t: 298.15
t_skin: 25
conv+sweat: -48.2469
F_t: 298.15
t_skin: 25
conv+sweat: -48.2469
F_t: 298.15
t_skin: 25
conv+sweat: -48.2469
F_t: 298.15
t_skin: 25
conv+sweat: -48.2469
F_t: 298.15
t_skin: 25
conv+sweat: -48.2469
F_t: 298.15
t_skin: 25
conv+sweat: -48.2469
F_t: 298.15
t_skin: 25
conv+sweat: -48.2469
F_t: 298.15
t_skin: 25
conv+sweat: -48.2469
F_t: 298.15
t_skin: 25
conv+sweat: -48.2469
F_t: 298.15
t_skin: 25
conv+sweat: -48.2469
F_t: 298.15
t_skin: 25
conv+sweat: -48.2469
F_t: 298.15
t_skin: 25
conv+sweat: -48.2469
F_t: 298.15
t_skin: 25
conv+sweat: -48.2469
F_t: 298.15
t_skin: 25
conv+sweat: -48.2469
F_t: 298.15
t_skin: 25
conv+sweat: -48.2469
F_t: 298.15
t_skin: 25
conv+sweat: -48.2469
F_t: 298.15
t_skin: 25
conv+sweat: -48.2469
F_t: 298.15
t_skin: 25
conv+sweat: -48.2469
F_t: 298.15
t_skin: 25
conv+sweat: -48.2469
F_t: 298.15
t_skin: 25
conv+sweat: -48.2469
F_t: 298.15
t_skin: 25
conv+sweat: -48.2469
F_t: 298.15
t_skin: 25
conv+sweat: -48.2469
F_t: 298.15
t_skin: 25
conv+sweat: -48.2469
F_t: 298.15
t_skin: 25
conv+sweat: -48.2469
F_t: 298.15
t_skin: 25
conv+sweat: -48.2469
F_t: 298.15
t_skin: 25
conv+sweat: -48.2469
F_t: 298.15
t_skin: 25
conv+sweat: -48.2469
F_t: 298.15
t_skin: 25
conv+sweat: -48.2469
F_t: 298.15
t_skin: 25
conv+sweat: -48.2469
F_t: 298.15
t_skin: 25
conv+sweat: -48.2469
F_t: 298.15
t_skin: 25
conv+sweat: -48.2469
F_t: 298.15
t_skin: 25
conv+sweat: -48.2469
F_t: 298.15
t_skin: 25
conv+sweat: -48.2469
F_t: 298.15
t_skin: 25
conv+sweat: -48.2469
F_t: 298.15
t_skin: 25
conv+sweat: -48.2469
F_t: 298.15
t_skin: 25
conv+sweat: -48.2469
F_t: 298.15
t_skin: 25
conv+sweat: -48.2469
F_t: 298.15
t_skin: 25
conv+sweat: -48.2469
F_t: 298.15
t_skin: 25
conv+sweat: -48.2469
F_t: 298.15
t_skin: 25
conv+sweat: -48.2469
F_t: 298.15
t_skin: 25
conv+sweat: -48.2469
F_t: 298.15
t_skin: 25
conv+sweat: -48.2469
F_t: 298.15
t_skin: 25
conv+sweat: -48.2469
F_t: 298.15
t_skin: 25
conv+sweat: -48.2469
F_t: 298.15
t_skin: 25
conv+sweat: -48.2469
F_t: 298.15
t_skin: 25
conv+sweat: -48.2469
F_t: 298.15
t_skin: 25
conv+sweat: -48.2469
F_t: 298.15
t_skin: 25
conv+sweat: -48.2469
F_t: 298.15
t_skin: 25
conv+sweat: -48.2469
F_t: 298.15
t_skin: 25
conv+sweat: -48.2469
F_t: 298.15
t_skin: 25
conv+sweat: -48.2469
F_t: 298.15
t_skin: 25
conv+sweat: -48.2469
F_t: 298.15
t_skin: 25
conv+sweat: -48.2469
F_t: 298.15
t_skin: 25
conv+sweat: -48.2469
F_t: 298.15
t_skin: 25
conv+sweat: -48.2469
F_t: 298.15
t_skin: 25
conv+sweat: -48.2469
F_t: 298.15
t_skin: 25
conv+sweat: -48.2469
F_t: 298.15
t_skin: 25
conv+sweat: -48.2469
F_t: 298.15
t_skin: 25
conv+sweat: -48.2469
F_t: 298.15
t_skin: 25
conv+sweat: -48.2469
F_t: 298.15
t_skin: 25
conv+sweat: -48.2469
F_t: 298.15
t_skin: 25
conv+sweat: -48.2469
F_t: 298.15
t_skin: 25
conv+sweat: -48.2469
F_t: 298.15
t_skin: 25
conv+sweat: -48.2469
F_t: 298.15
t_skin: 25
conv+sweat: -48.2469
F_t: 298.15
t_skin: 25
conv+sweat: -48.2469
F_t: 298.15
t_skin: 25
conv+sweat: -48.2469
F_t: 298.15
t_skin: 25
conv+sweat: -48.2469
F_t: 298.15
t_skin: 25
conv+sweat: -48.2469
F_t: 298.15
t_skin: 25
conv+sweat: -48.2469
F_t: 298.15
t_skin: 25
conv+sweat: -48.2469
F_t: 298.15
t_skin: 25
conv+sweat: -48.2469
F_t: 298.15
t_skin: 25
conv+sweat: -48.2469
F_t: 298.15
t_skin: 25
conv+sweat: -48.2469
F_t: 298.15
t_skin: 25
conv+sweat: -48.2469
F_t: 298.15
t_skin: 25
conv+sweat: -48.2469
F_t: 298.15
[...]
conv+sweat: -127.528
F_t: 310.15
t_skin: 37
conv+sweat: -127.528
F_t: 310.15
t_skin: 37
conv+sweat: -127.528
F_t: 310.15
t_skin: 37
conv+sweat: -127.528
F_t: 310.15
t_skin: 37
conv+sweat: -127.528
F_t: 310.15
t_skin: 37
conv+sweat: -127.528
F_t: 310.15
t_skin: 37
conv+sweat: -127.528
F_t: 310.15
t_skin: 37
conv+sweat: -127.528
F_t: 310.15
t_skin: 37
conv+sweat: -127.528
F_t: 310.15
t_skin: 37
conv+sweat: -127.528
F_t: 310.15
t_skin: 37
conv+sweat: -127.528
F_t: 310.15
t_skin: 37
conv+sweat: -127.528
F_t: 310.15
t_skin: 37
conv+sweat: -127.528
F_t: 310.15
t_skin: 37
conv+sweat: -127.528
F_t: 310.15
t_skin: 37
conv+sweat: -127.528
F_t: 310.15
t_skin: 37
conv+sweat: -127.528
F_t: 310.15
t_skin: 37
conv+sweat: -127.528
F_t: 310.15
t_skin: 37
conv+sweat: -127.528
F_t: 310.15
t_skin: 37
conv+sweat: -127.528
F_t: 310.15
t_skin: 37
conv+sweat: -127.528
F_t: 310.15
t_skin: 37
conv+sweat: -127.528
F_t: 310.15
t_skin: 37
conv+sweat: -127.528
F_t: 310.15
t_skin: 37
conv+sweat: -127.528
F_t: 310.15
t_skin: 37
conv+sweat: -127.528
F_t: 310.15
t_skin: 37
conv+sweat: -127.528
F_t: 310.15
t_skin: 37
conv+sweat: -127.528
F_t: 310.15
t_skin: 37
conv+sweat: -127.528
F_t: 310.15
t_skin: 37
conv+sweat: -127.528
F_t: 310.15
t_skin: 37
conv+sweat: -127.528
F_t: 310.15
t_skin: 37
conv+sweat: -127.528
F_t: 310.15
t_skin: 37
conv+sweat: -127.528
F_t: 310.15
t_skin: 37
conv+sweat: -127.528
F_t: 310.15
t_skin: 37
conv+sweat: -127.528
F_t: 310.15
t_skin: 37
conv+sweat: -127.528
F_t: 310.15
t_skin: 37
conv+sweat: -127.528
F_t: 310.15
t_skin: 37
conv+sweat: -127.528
F_t: 310.15
t_skin: 37
conv+sweat: -127.528
F_t: 310.15
t_skin: 37
conv+sweat: -127.528
F_t: 310.15
t_skin: 37
conv+sweat: -127.528
F_t: 310.15
t_skin: 37
conv+sweat: -127.528
F_t: 310.15
t_skin: 37
conv+sweat: -127.528
F_t: 310.15
t_skin: 37
conv+sweat: -127.528
F_t: 310.15
t_skin: 37
conv+sweat: -127.528
F_t: 310.15
t_skin: 37
conv+sweat: -127.528
F_t: 310.15
t_skin: 37
conv+sweat: -127.528
F_t: 310.15
t_skin: 37
conv+sweat: -127.528
F_t: 310.15
t_skin: 37
conv+sweat: -127.528
F_t: 310.15
t_skin: 37
conv+sweat: -127.528
F_t: 310.15
t_skin: 37
conv+sweat: -127.528
F_t: 310.15
t_skin: 37
conv+sweat: -127.528
F_t: 310.15
t_skin: 37
conv+sweat: -127.528
F_t: 310.15
t_skin: 37
conv+sweat: -127.528
F_t: 310.15
t_skin: 37
conv+sweat: -127.528
F_t: 310.15
t_skin: 37
conv+sweat: -127.528
F_t: 310.15
t_skin: 37
conv+sweat: -127.528
F_t: 310.15
t_skin: 37
conv+sweat: -127.528
F_t: 310.15
t_skin: 37
conv+sweat: -127.528
F_t: 310.15
t_skin: 37
conv+sweat: -127.528
F_t: 310.15
t_skin: 37
conv+sweat: -127.528
F_t: 310.15
t_skin: 37
conv+sweat: -127.528
F_t: 310.15
t_skin: 37
conv+sweat: -127.528
F_t: 310.15
t_skin: 37
conv+sweat: -127.528
F_t: 310.15
t_skin: 37
conv+sweat: -127.528
F_t: 310.15
t_skin: 37
conv+sweat: -127.528
F_t: 310.15
t_skin: 37
conv+sweat: -127.528
F_t: 310.15
t_skin: 37
conv+sweat: -127.528
F_t: 310.15
t_skin: 37
conv+sweat: -127.528
F_t: 310.15
t_skin: 37
conv+sweat: -127.528
F_t: 310.15
t_skin: 37
conv+sweat: -127.528
F_t: 310.15
t_skin: 37
conv+sweat: -127.528
F_t: 310.15
t_skin: 37
conv+sweat: -127.528
F_t: 310.15
t_skin: 37
conv+sweat: -127.528
F_t: 310.15
t_skin: 37
conv+sweat: -127.528
F_t: 310.15
t_skin: 37
conv+sweat: -127.528
F_t: 310.15
t_skin: 37
conv+sweat: -127.528
F_t: 310.15
t_skin: 37
conv+sweat: -127.528
F_t: 310.15
t_skin: 37
conv+sweat: -127.528
F_t: 310.15
t_skin: 37
conv+sweat: -127.528
F_t: 310.15
t_skin: 37
conv+sweat: -127.528
F_t: 310.15
t_skin: 37
conv+sweat: -127.528
F_t: 310.15
t_skin: 37
conv+sweat: -127.528
F_t: 310.15
t_skin: 37
conv+sweat: -127.528
F_t: 310.15
t_skin: 37
conv+sweat: -127.528
F_t: 310.15
t_skin: 37
conv+sweat: -127.528
F_t: 310.15
t_skin: 37
conv+sweat: -127.528
F_t: 310.15
t_skin: 37
conv+sweat: -127.528
F_t: 310.15
t_skin: 37
conv+sweat: -127.528
F_t: 310.15
t_skin: 37
conv+sweat: -127.528
F_t: 310.15
t_skin: 37
conv+sweat: -127.528
F_t: 310.15
t_skin: 37
conv+sweat: -127.528
F_t: 310.15
t_skin: 37
conv+sweat: -127.528
F_t: 310.15
t_skin: 37
conv+sweat: -127.528
F_t: 310.15
t_skin: 37
conv+sweat: -127.528
F_t: 310.15
t_skin: 37
conv+sweat: -127.528
F_t: 310.15
t_skin: 37
conv+sweat: -127.528
F_t: 310.15
t_skin: 37
conv+sweat: -127.528
F_t: 310.15
t_skin: 37
conv+sweat: -127.528
F_t: 310.15
t_skin: 37
conv+sweat: -127.528
F_t: 310.15
t_skin: 37
conv+sweat: -127.528
F_t: 310.15
t_skin: 37
conv+sweat: -127.528
F_t: 310.15
t_skin: 37
conv+sweat: -127.528
F_t: 310.15
t_skin: 37
conv+sweat: -127.528
F_t: 310.15
t_skin: 37
conv+sweat: -127.528
F_t: 310.15
t_skin: 37
conv+sweat: -127.528
F_t: 310.15
t_skin: 37
conv+sweat: -127.528
F_t: 310.15
t_skin: 37
conv+sweat: -127.528
F_t: 310.15
t_skin: 37
conv+sweat: -127.528
F_t: 310.15
t_skin: 37
conv+sweat: -127.528
F_t: 310.15
t_skin: 37
conv+sweat: -127.528
F_t: 310.15
t_skin: 37
conv+sweat: -127.528
F_t: 310.15
t_skin: 37
conv+sweat: -127.528
F_t: 310.15
t_skin: 37
conv+sweat: -127.528
F_t: 310.15
t_skin: 37
conv+sweat: -127.528
F_t: 310.15
t_skin: 37
conv+sweat: -127.528
F_t: 310.15
t_skin: 37
conv+sweat: -127.528
F_t: 310.15
t_skin: 37
conv+sweat: -127.528
F_t: 310.15
t_skin: 37
conv+sweat: -127.528
F_t: 310.15
t_skin: 37
conv+sweat: -127.528
F_t: 310.15
t_skin: 37
conv+sweat: -127.528
F_t: 310.15
t_skin: 37
conv+sweat: -127.528
F_t: 310.15
t_skin: 37
conv+sweat: -127.528
F_t: 310.15
t_skin: 37
conv+sweat: -127.528
F_t: 310.15
t_skin: 37
conv+sweat: -127.528
F_t: 310.15
t_skin: 37
conv+sweat: -127.528
F_t: 310.15
t_skin: 37
conv+sweat: -127.528
F_t: 310.15
t_skin: 37
conv+sweat: -127.528
F_t: 310.15
t_skin: 37
conv+sweat: -127.528
F_t: 310.15
t_skin: 37
conv+sweat: -127.528
F_t: 310.15
t_skin: 37
conv+sweat: -127.528
F_t: 310.15
t_skin: 37
conv+sweat: -127.528
F_t: 310.15
t_skin: 37
conv+sweat: -127.528
F_t: 310.15
t_skin: 37
conv+sweat: -127.528
F_t: 310.15
t_skin: 37
conv+sweat: -127.528
F_t: 310.15
t_skin: 37
conv+sweat: -127.528
F_t: 310.15
t_skin: 37
conv+sweat: -127.528
F_t: 310.15
t_skin: 37
conv+sweat: -127.528
F_t: 310.15
t_skin: 37
conv+sweat: -127.528
F_t: 310.15
t_skin: 37
conv+sweat: -127.528
F_t: 310.15
t_skin: 37
conv+sweat: -127.528
F_t: 310.15
t_skin: 37
conv+sweat: -127.528
F_t: 310.15
t_skin: 37
conv+sweat: -127.528
F_t: 310.15
t_skin: 37
conv+sweat: -127.528
F_t: 310.15
t_skin: 37
conv+sweat: -127.528
F_t: 310.15
t_skin: 37
conv+sweat: -127.528
F_t: 310.15
t_skin: 37
conv+sweat: -127.528
F_t: 310.15
t_skin: 37
conv+sweat: -127.528
F_t: 310.15
t_skin: 37
conv+sweat: -127.528
F_t: 310.15
t_skin: 37
conv+sweat: -127.528
F_t: 310.15
t_skin: 37
conv+sweat: -127.528
F_t: 310.15
t_skin: 37
conv+sweat: -127.528
F_t: 310.15
t_skin: 37
conv+sweat: -127.528
F_t: 310.15
t_skin: 37
conv+sweat: -127.528
F_t: 310.15
t_skin: 37
conv+sweat: -127.528
F_t: 310.15
t_skin: 37
conv+sweat: -127.528
F_t: 310.15
t_skin: 37
conv+sweat: -127.528
F_t: 310.15
t_skin: 37
conv+sweat: -127.528
F_t: 310.15
t_skin: 37
conv+sweat: -127.528
F_t: 310.15
t_skin: 37
conv+sweat: -127.528
F_t: 310.15
t_skin: 37
conv+sweat: -127.528
F_t: 310.15
t_skin: 37
conv+sweat: -127.528
F_t: 310.15
t_skin: 37
conv+sweat: -127.528
F_t: 310.15
t_skin: 37
conv+sweat: -127.528
F_t: 310.15
t_skin: 37
conv+sweat: -127.528
F_t: 310.15
t_skin: 37
conv+sweat: -127.528
F_t: 310.15
t_skin: 37
conv+sweat: -127.528
F_t: 310.15
t_skin: 37
conv+sweat: -127.528
F_t: 310.15
t_skin: 37
conv+sweat: -127.528
F_t: 310.15
t_skin: 37
conv+sweat: -127.528
F_t: 310.15
t_skin: 37
conv+sweat: -127.528
F_t: 310.15
t_skin: 37
conv+sweat: -127.528
F_t: 310.15
t_skin: 37
conv+sweat: -127.528
F_t: 310.15
t_skin: 37
conv+sweat: -127.528
F_t: 310.15
t_skin: 37
conv+sweat: -127.528
F_t: 310.15
t_skin: 37
conv+sweat: -127.528
F_t: 310.15
t_skin: 37
conv+sweat: -127.528
F_t: 310.15
t_skin: 37
conv+sweat: -127.528
F_t: 310.15
t_skin: 37
conv+sweat: -127.528
F_t: 310.15
t_skin: 37
conv+sweat: -127.528
F_t: 310.15
t_skin: 37
conv+sweat: -127.528
F_t: 310.15
t_skin: 37
conv+sweat: -127.528
F_t: 310.15
t_skin: 37
conv+sweat: -127.528
F_t: 310.15
t_skin: 37
conv+sweat: -127.528
F_t: 310.15
t_skin: 37
conv+sweat: -127.528
F_t: 310.15
t_skin: 37
conv+sweat: -127.528
F_t: 310.15
t_skin: 37
conv+sweat: -127.528
F_t: 310.15
t_skin: 37
conv+sweat: -127.528
F_t: 310.15
t_skin: 37
conv+sweat: -127.528
F_t: 310.15
t_skin: 37
conv+sweat: -127.528
F_t: 310.15
t_skin: 37
conv+sweat: -127.528
F_t: 310.15
t_skin: 37
conv+sweat: -127.528
F_t: 310.15
t_skin: 37
conv+sweat: -127.528
F_t: 310.15
t_skin: 37
conv+sweat: -127.528
F_t: 310.15
t_skin: 37
conv+sweat: -127.528
F_t: 310.15
t_skin: 37
conv+sweat: -127.528
F_t: 310.15
t_skin: 37
conv+sweat: -127.528
F_t: 310.15
t_skin: 37
conv+sweat: -127.528
F_t: 310.15
t_skin: 37
conv+sweat: -127.528
F_t: 310.15
t_skin: 37
conv+sweat: -127.528
F_t: 310.15
t_skin: 37
conv+sweat: -127.528
F_t: 310.15
t_skin: 37
conv+sweat: -127.528
F_t: 310.15
t_skin: 37
conv+sweat: -127.528
F_t: 310.15
t_skin: 37
conv+sweat: -127.528
F_t: 310.15
t_skin: 37
conv+sweat: -127.528
F_t: 310.15
t_skin: 37
conv+sweat: -127.528
F_t: 310.15
t_skin: 37
conv+sweat: -127.528
F_t: 310.15
t_skin: 37
conv+sweat: -127.528
F_t: 310.15
t_skin: 37
conv+sweat: -127.528
F_t: 310.15
t_skin: 37
conv+sweat: -127.528
F_t: 310.15
t_skin: 37
conv+sweat: -127.528
F_t: 310.15
t_skin: 37
conv+sweat: -127.528
F_t: 310.15
t_skin: 37
conv+sweat: -127.528
F_t: 310.15
t_skin: 37
conv+sweat: -127.528
F_t: 310.15
t_skin: 37
conv+sweat: -127.528
F_t: 310.15
t_skin: 37
conv+sweat: -127.528
F_t: 310.15
t_skin: 37
conv+sweat: -127.528
F_t: 310.15
t_skin: 37
conv+sweat: -127.528
F_t: 310.15
t_skin: 37
conv+sweat: -127.528
F_t: 310.15
t_skin: 37
conv+sweat: -127.528
F_t: 310.15
t_skin: 37
conv+sweat: -127.528
F_t: 310.15
t_skin: 37
conv+sweat: -127.528
F_t: 310.15
t_skin: 37
conv+sweat: -127.528
F_t: 310.15
t_skin: 37
conv+sweat: -127.528
F_t: 310.15
t_skin: 37
conv+sweat: -127.528
F_t: 310.15
t_skin: 37
conv+sweat: -127.528
F_t: 310.15
t_skin: 37
conv+sweat: -127.528
F_t: 310.15
t_skin: 37
conv+sweat: -127.528
F_t: 310.15
t_skin: 37
conv+sweat: -127.528
F_t: 310.15
t_skin: 37
conv+sweat: -127.528
F_t: 310.15
t_skin: 37
conv+sweat: -127.528
F_t: 310.15
t_skin: 37
conv+sweat: -127.528
F_t: 310.15
t_skin: 37
conv+sweat: -127.528
F_t: 310.15
t_skin: 37
conv+sweat: -127.528
F_t: 310.15
t_skin: 37
conv+sweat: -127.528
F_t: 310.15
t_skin: 37
conv+sweat: -127.528
F_t: 310.15
t_skin: 37
conv+sweat: -127.528
F_t: 310.15
t_skin: 37
conv+sweat: -127.528
F_t: 310.15
t_skin: 37
conv+sweat: -127.528
F_t: 310.15
t_skin: 37
conv+sweat: -127.528
F_t: 310.15
t_skin: 37
conv+sweat: -127.528
F_t: 310.15
t_skin: 37
conv+sweat: -127.528
F_t: 310.15
t_skin: 37
conv+sweat: -127.528
F_t: 310.15
t_skin: 37
conv+sweat: -127.528
F_t: 310.15
t_skin: 37
conv+sweat: -127.528
F_t: 310.15
t_skin: 37
conv+sweat: -127.528
F_t: 310.15
t_skin: 37
conv+sweat: -127.528
F_t: 310.15
t_skin: 37
conv+sweat: -127.528
F_t: 310.15
t_skin: 37
conv+sweat: -127.528
F_t: 310.15
t_skin: 37
conv+sweat: -127.528
F_t: 310.15
t_skin: 37
conv+sweat: -127.528
F_t: 310.15
t_skin: 37
conv+sweat: -127.528
F_t: 310.15
t_skin: 37
conv+sweat: -127.528
F_t: 310.15
t_skin: 37
conv+sweat: -127.528
F_t: 310.15
t_skin: 37
conv+sweat: -127.528
F_t: 310.15
t_skin: 37
conv+sweat: -127.528
F_t: 310.15
t_skin: 37
conv+sweat: -127.528
F_t: 310.15
t_skin: 37
conv+sweat: -127.528
F_t: 310.15
t_skin: 37
conv+sweat: -127.528
F_t: 310.15
t_skin: 37
conv+sweat: -127.528
F_t: 310.15
t_skin: 37
conv+sweat: -127.528
F_t: 310.15
t_skin: 37
conv+sweat: -127.528
F_t: 310.15
t_skin: 37
conv+sweat: -127.528
F_t: 310.15
t_skin: 37
conv+sweat: -127.528
F_t: 310.15
t_skin: 37
conv+sweat: -127.528
F_t: 310.15
t_skin: 37
conv+sweat: -127.528
F_t: 310.15
t_skin: 37
conv+sweat: -127.528
F_t: 310.15
t_skin: 37
conv+sweat: -127.528
F_t: 310.15
t_skin: 37
conv+sweat: -127.528
F_t: 310.15
t_skin: 37
conv+sweat: -127.528
F_t: 310.15
t_skin: 37
conv+sweat: -127.528
F_t: 310.15
t_skin: 37
conv+sweat: -127.528
F_t: 310.15
t_skin: 37
conv+sweat: -127.528
F_t: 310.15
t_skin: 37
conv+sweat: -127.528
F_t: 310.15
t_skin: 37
conv+sweat: -127.528
F_t: 310.15
t_skin: 37
conv+sweat: -127.528
F_t: 310.15
t_skin: 37
conv+sweat: -127.528
F_t: 310.15
t_skin: 37
conv+sweat: -127.528
F_t: 310.15
t_skin: 37
conv+sweat: -127.528
F_t: 310.15
t_skin: 37
conv+sweat: -127.528
F_t: 310.15
t_skin: 37
conv+sweat: -127.528
F_t: 310.15
t_skin: 37
conv+sweat: -127.528
F_t: 310.15
t_skin: 37
conv+sweat: -127.528
F_t: 310.15
t_skin: 37
conv+sweat: -127.528
F_t: 310.15
t_skin: 37
conv+sweat: -127.528
F_t: 310.15
t_skin: 37
conv+sweat: -127.528
F_t: 310.15
t_skin: 37
conv+sweat: -127.528
F_t: 310.15
t_skin: 37
conv+sweat: -127.528
F_t: 310.15
t_skin: 37
conv+sweat: -127.528
F_t: 310.15
t_skin: 37
conv+sweat: -127.528
F_t: 310.15
t_skin: 37
conv+sweat: -127.528
F_t: 310.15
t_skin: 37
conv+sweat: -127.528
F_t: 310.15
t_skin: 37
conv+sweat: -127.528
F_t: 310.15
t_skin: 37
conv+sweat: -127.528
F_t: 310.15
t_skin: 37
conv+sweat: -127.528
F_t: 310.15
t_skin: 37
conv+sweat: -127.528
F_t: 310.15
t_skin: 37
conv+sweat: -127.528
F_t: 310.15
t_skin: 37
conv+sweat: -127.528
F_t: 310.15
t_skin: 37
conv+sweat: -127.528
F_t: 310.15
t_skin: 37
conv+sweat: -127.528
F_t: 310.15
t_skin: 37
conv+sweat: -127.528
F_t: 310.15
t_skin: 37
conv+sweat: -127.528
F_t: 310.15
t_skin: 37
conv+sweat: -127.528
F_t: 310.15
t_skin: 37
conv+sweat: -127.528
F_t: 310.15
t_skin: 37
conv+sweat: -127.528
F_t: 310.15
t_skin: 37
conv+sweat: -127.528
F_t: 310.15
t_skin: 37
conv+sweat: -127.528
F_t: 310.15
t_skin: 37
conv+sweat: -127.528
F_t: 310.15
t_skin: 37
conv+sweat: -127.528
F_t: 310.15
t_skin: 37
conv+sweat: -127.528
F_t: 310.15
t_skin: 37
conv+sweat: -127.528
F_t: 310.15
t_skin: 37
conv+sweat: -127.528
F_t: 310.15
t_skin: 37
conv+sweat: -127.528
F_t: 310.15
t_skin: 37
conv+sweat: -127.528
F_t: 310.15
t_skin: 37
conv+sweat: -127.528
F_t: 310.15
t_skin: 37
conv+sweat: -127.528
F_t: 310.15
t_skin: 37
conv+sweat: -127.528
F_t: 310.15
t_skin: 37
conv+sweat: -127.528
F_t: 310.15
t_skin: 37
conv+sweat: -127.528
F_t: 310.15
t_skin: 37
conv+sweat: -127.528
F_t: 310.15
t_skin: 37
conv+sweat: -127.528
F_t: 310.15
t_skin: 37
conv+sweat: -127.528
F_t: 310.15
t_skin: 37
conv+sweat: -127.528
F_t: 310.15
t_skin: 37
conv+sweat: -127.528
F_t: 310.15
t_skin: 37
conv+sweat: -127.528
F_t: 310.15
t_skin: 37
conv+sweat: -127.528
F_t: 310.15
t_skin: 37
conv+sweat: -127.528
F_t: 310.15
t_skin: 37
conv+sweat: -127.528
F_t: 310.15
t_skin: 37
conv+sweat: -127.528
F_t: 310.15
t_skin: 37
conv+sweat: -127.528
F_t: 310.15
t_skin: 37
conv+sweat: -127.528
F_t: 310.15
t_skin: 37
conv+sweat: -127.528
F_t: 310.15
t_skin: 37
conv+sweat: -127.528
F_t: 310.15
t_skin: 37
conv+sweat: -127.528
F_t: 310.15
t_skin: 37
conv+sweat: -127.528
F_t: 310.15
t_skin: 37
conv+sweat: -127.528
F_t: 310.15
t_skin: 37
conv+sweat: -127.528
F_t: 310.15
t_skin: 37
conv+sweat: -127.528
F_t: 310.15
t_skin: 37
conv+sweat: -127.528
F_t: 310.15
t_skin: 37
conv+sweat: -127.528
F_t: 310.15
t_skin: 37
conv+sweat: -127.528
F_t: 310.15
t_skin: 37
conv+sweat: -127.528
F_t: 310.15
t_skin: 37
conv+sweat: -127.528
F_t: 310.15
t_skin: 37
conv+sweat: -127.528
F_t: 310.15
t_skin: 37
conv+sweat: -127.528
F_t: 310.15
t_skin: 37
conv+sweat: -127.528
F_t: 310.15
t_skin: 37
conv+sweat: -127.528
F_t: 310.15
t_skin: 37
conv+sweat: -127.528
F_t: 310.15
t_skin: 37
conv+sweat: -127.528
F_t: 310.15
t_skin: 37
conv+sweat: -127.528
F_t: 310.15
t_skin: 37
conv+sweat: -127.528
F_t: 310.15
t_skin: 37
conv+sweat: -127.528
F_t: 310.15
t_skin: 37
conv+sweat: -127.528
F_t: 310.15
t_skin: 37
conv+sweat: -127.528
F_t: 310.15
t_skin: 37
conv+sweat: -127.528
F_t: 310.15
t_skin: 37
conv+sweat: -127.528
F_t: 310.15
t_skin: 37
conv+sweat: -127.528
F_t: 310.15
t_skin: 37
conv+sweat: -127.528
F_t: 310.15
t_skin: 37
conv+sweat: -127.528
F_t: 310.15
t_skin: 37
conv+sweat: -127.528
F_t: 310.15
t_skin: 37
conv+sweat: -127.528
F_t: 310.15
t_skin: 37
conv+sweat: -127.528
F_t: 310.15
t_skin: 37
conv+sweat: -127.528
F_t: 310.15
t_skin: 37
conv+sweat: -127.528
F_t: 310.15
t_skin: 37
conv+sweat: -127.528
F_t: 310.15
t_skin: 37
conv+sweat: -127.528
F_t: 310.15
t_skin: 37
conv+sweat: -127.528
F_t: 310.15
t_skin: 37
conv+sweat: -127.528
F_t: 310.15
t_skin: 37
conv+sweat: -127.528
F_t: 310.15
t_skin: 37
conv+sweat: -127.528
F_t: 310.15
t_skin: 37
conv+sweat: -127.528
F_t: 310.15
t_skin: 37
conv+sweat: -127.528
F_t: 310.15
t_skin: 37
conv+sweat: -127.528
F_t: 310.15
t_skin: 37
conv+sweat: -127.528
F_t: 310.15
t_skin: 37
conv+sweat: -127.528
F_t: 310.15
t_skin: 37
conv+sweat: -127.528
F_t: 310.15
t_skin: 37
conv+sweat: -127.528
F_t: 310.15
t_skin: 37
conv+sweat: -127.528
F_t: 310.15
t_skin: 37
conv+sweat: -127.528
F_t: 310.15
t_skin: 37
conv+sweat: -127.528
F_t: 310.15
t_skin: 37
conv+sweat: -127.528
F_t: 310.15
t_skin: 37
conv+sweat: -127.528
F_t: 310.15
t_skin: 37
conv+sweat: -127.528
F_t: 310.15
t_skin: 37
conv+sweat: -127.528
F_t: 310.15
t_skin: 37
conv+sweat: -127.528
F_t: 310.15
t_skin: 37
conv+sweat: -127.528
F_t: 310.15
t_skin: 37
conv+sweat: -127.528
F_t: 310.15
t_skin: 37
conv+sweat: -127.528
F_t: 310.15
t_skin: 37
conv+sweat: -127.528
F_t: 310.15
t_skin: 37
conv+sweat: -127.528
F_t: 310.15
t_skin: 37
conv+sweat: -127.528
F_t: 310.15
t_skin: 37
conv+sweat: -127.528
F_t: 310.15
t_skin: 37
conv+sweat: -127.528
F_t: 310.15
t_skin: 37
conv+sweat: -127.528
F_t: 310.15
t_skin: 37
conv+sweat: -127.528
F_t: 310.15
t_skin: 37
conv+sweat: -127.528
F_t: 310.15
t_skin: 37
conv+sweat: -127.528
F_t: 310.15
t_skin: 37
conv+sweat: -127.528
F_t: 310.15
t_skin: 37
conv+sweat: -127.528
F_t: 310.15
t_skin: 37
conv+sweat: -127.528
F_t: 310.15
t_skin: 37
conv+sweat: -127.528
F_t: 310.15
t_skin: 37
conv+sweat: -127.528
F_t: 310.15
t_skin: 37
conv+sweat: -127.528
F_t: 310.15
t_skin: 37
conv+sweat: -127.528
F_t: 310.15
t_skin: 37
conv+sweat: -127.528
F_t: 310.15
t_skin: 37
conv+sweat: -127.528
F_t: 310.15
t_skin: 37
conv+sweat: -127.528
F_t: 310.15
t_skin: 37
conv+sweat: -127.528
F_t: 310.15
t_skin: 37
conv+sweat: -127.528
F_t: 310.15
t_skin: 37
conv+sweat: -127.528
F_t: 310.15
t_skin: 37
conv+sweat: -127.528
F_t: 310.15
t_skin: 37
conv+sweat: -127.528
F_t: 310.15
t_skin: 37
conv+sweat: -127.528
F_t: 310.15
t_skin: 37
conv+sweat: -127.528
F_t: 310.15
t_skin: 37
conv+sweat: -127.528
F_t: 310.15
t_skin: 37
conv+sweat: -127.528
F_t: 310.15
t_skin: 37
conv+sweat: -127.528
F_t: 310.15
t_skin: 37
conv+sweat: -127.528
F_t: 310.15
t_skin: 37
conv+sweat: -127.528
F_t: 310.15
t_skin: 37
conv+sweat: -127.528
F_t: 310.15
t_skin: 37
conv+sweat: -127.528
F_t: 310.15
t_skin: 37
conv+sweat: -127.528
F_t: 310.15
t_skin: 37
conv+sweat: -127.528
F_t: 310.15
t_skin: 37
conv+sweat: -127.528
F_t: 310.15
t_skin: 37
conv+sweat: -127.528
F_t: 310.15
t_skin: 37
conv+sweat: -127.528
F_t: 310.15
t_skin: 37
conv+sweat: -127.528
F_t: 310.15
t_skin: 37
conv+sweat: -127.528
F_t: 310.15
t_skin: 37
conv+sweat: -127.528
F_t: 310.15
t_skin: 37
conv+sweat: -127.528
F_t: 310.15
t_skin: 37
conv+sweat: -127.528
F_t: 310.15
t_skin: 37
conv+sweat: -127.528
F_t: 310.15
t_skin: 37
conv+sweat: -127.528
F_t: 310.15
t_skin: 37
conv+sweat: -127.528
F_t: 310.15
t_skin: 37
conv+sweat: -127.528
F_t: 310.15
t_skin: 37
conv+sweat: -127.528
F_t: 310.15
t_skin: 37
conv+sweat: -127.528
F_t: 310.15
t_skin: 37
conv+sweat: -127.528
F_t: 310.15
t_skin: 37
conv+sweat: -127.528
F_t: 310.15
t_skin: 37
conv+sweat: -127.528



> (cx-gui-do cx-activate-item "Patch*PanelButtons*PushButton1(Close)")
(cx-gui-do cx-activate-item "Patch*PanelButtons*PushButton1(Close)")



> (cx-gui-do cx-activate-item "Ribbon*Frame1*Frame5(Solution)*Table1*Table3(Run Calculation)*PushButton5(Run Calculation)")



> (cx-gui-do cx-activate-item "Run Calculation*Table1*Table6(Solution Advancement)*Table1*PushButton1(Calculate)")


Shutting down Server...
Services Shutdown...Done.

===================================================================================
=   BAD TERMINATION OF ONE OF YOUR APPLICATION PROCESSES
=   RANK 3 PID 28340 RUNNING AT BME-BANER-01
=   EXIT STATUS: -1 (ffffffff)
===================================================================================
