Auto-Transcript Start Time:  16:34:19, 01 Apr 2026 Eastern Daylight Time 
Current Directory: "C:\Users\Research\Desktop\CBT_pred\cases\exercise\with_sweating\case_1"

              Welcome to ANSYS Fluent 2024 R2

              Copyright 1987-2024 ANSYS, Inc. All Rights Reserved.
              Unauthorized use, distribution or duplication is prohibited.
              This product is subject to U.S. laws governing export and re-export.
              For full Legal Notice, see documentation.

Build Time: May 13 2024 11:21:01 EST  Build Id: 10192  
 
Connected License Server List:	1055@iprevail.ad.uc.edu

     --------------------------------------------------------------
     This is an academic version of ANSYS FLUENT. Usage of this product
     license is limited to the terms and conditions specified in your ANSYS
     license form, additional terms section.
     --------------------------------------------------------------
Host spawning Node 0 on machine "BME-BANER-01" (win64).

-------------------------------------------------------------------------------
ID    Hostname      Core  O.S.         PID    Vendor                         
-------------------------------------------------------------------------------
n3    BME-BANER-01  4/8  Windows-x64  27780  Intel(R) Core(TM) i7-9700      
n2    BME-BANER-01  3/8  Windows-x64  27460  Intel(R) Core(TM) i7-9700      
n1    BME-BANER-01  2/8  Windows-x64  14124  Intel(R) Core(TM) i7-9700      
n0*   BME-BANER-01  1/8  Windows-x64  28124  Intel(R) Core(TM) i7-9700      
host  BME-BANER-01       Windows-x64  28376  Intel(R) Core(TM) i7-9700      

MPI Option Selected: intel
Selected system interconnect: default
-------------------------------------------------------------------------------

Cleanup script file is C:\\Users\\Research\\Desktop\\CBT_pred\\cases\\exercise\\with_sweating\\case_1\\cleanup-fluent-BME-BANER-01-28376.bat
Fast-loading "C:\PROGRA~1\ANSYSI~1\v242\fluent\fluent24.2.0\\addons\afd\lib\hdfio.bin"
Done.
Multicore processors detected. Processor affinity set!

Reading from BME-BANER-01:"C:/Users/Research/Desktop/CBT_pred/cases/exercise/with_sweating/case_1/Exercise_Case_SteadyState.cas.h5" in NODE0 mode ...
  Reading mesh ...
       59946 cells,     3 cell zones ...
            918 hexahedral cells,  zone id: 8
          57345 mixed cells,  zone id: 9
           1683 tetrahedral cells,  zone id: 10
      127549 faces,     9 face zones ...
          11168 triangular wall faces,  zone id: 1
            336 triangular wall faces,  zone id: 2
             60 triangular wall faces,  zone id: 3
             60 triangular wall faces,  zone id: 12
            618 quadrilateral wall faces,  zone id: 4
            618 quadrilateral wall faces,  zone id: 13
           2445 quadrilateral interior faces,  zone id: 5
           3168 triangular interior faces,  zone id: 6
         109076 triangular interior faces,  zone id: 7
       14632 nodes,     1 node zone  ...
  Done.


Checking the existence of compiled "libudf" UDF library for current platform.
If needed will attempt auto-compilation...

 	 Make sure that UDF source files are in the directory 
 	 that contains your case and data files. If you have 
 	 an existing libudf directory, please remove this 
 	 directory to ensure that latest files are used. 
  

Will now auto-compile UDF library "libudf".
Copy "C:\Users\Research\Desktop\CBT_pred\cases\exercise\with_sweating\case_1\case1_parametrized.c" to "C:\Users\Research\Desktop\CBT_pred\cases\exercise\with_sweating\case_1\\libudf\\src"
Files udf_names.c and user_nt.udf in 3ddp_host are up-to-date.

Copyright 1987-2024 ANSYS, Inc. All Rights Reserved.
Compiler and linker: Clang (builtin)

scons: warning: No version of Visual Studio compiler found - C/C++ compilers most likely not set correctly
File "C:\\Users\\Research\\Desktop\\CBT_pred\\cases\\exercise\\with_sweating\\case_1\\libudf\\win64\\3ddp_host\\SConstruct", line 20, in <module>
Compiler path: "C:\\PROGRA~1\\ANSYSI~1\\v242\\fluent"\\ntbin\\clang\\bin\\clang-cl
Linker   path: "C:\\PROGRA~1\\ANSYSI~1\\v242\\fluent"\\ntbin\\clang\\bin\\lld-link

scons: warning: No version of Visual Studio compiler found - C/C++ compilers most likely not set correctly
File "C:\\Users\\Research\\Desktop\\CBT_pred\\cases\\exercise\\with_sweating\\case_1\\libudf\\win64\\3ddp_host\\SConstruct", line 156, in <module>
C sources: ['case1_parametrized.c']
Files udf_names.c and user_nt.udf in 3ddp_node are up-to-date.

Copyright 1987-2024 ANSYS, Inc. All Rights Reserved.
Compiler and linker: Clang (builtin)

scons: warning: No version of Visual Studio compiler found - C/C++ compilers most likely not set correctly
File "C:\\Users\\Research\\Desktop\\CBT_pred\\cases\\exercise\\with_sweating\\case_1\\libudf\\win64\\3ddp_node\\SConstruct", line 20, in <module>
Compiler path: "C:\\PROGRA~1\\ANSYSI~1\\v242\\fluent"\\ntbin\\clang\\bin\\clang-cl
Linker   path: "C:\\PROGRA~1\\ANSYSI~1\\v242\\fluent"\\ntbin\\clang\\bin\\lld-link

scons: warning: No version of Visual Studio compiler found - C/C++ compilers most likely not set correctly
File "C:\\Users\\Research\\Desktop\\CBT_pred\\cases\\exercise\\with_sweating\\case_1\\libudf\\win64\\3ddp_node\\SConstruct", line 156, in <module>
C sources: ['case1_parametrized.c']

Done.

BME-BANER-01: Opening library "C:\\Users\\Research\\Desktop\\CBT_pred\\cases\\exercise\\with_sweating\\case_1\\libudf"...
Done.

BME-BANER-01: Opening library "C:\\Users\\Research\\Desktop\\CBT_pred\\cases\\exercise\\with_sweating\\case_1\\libudf"...
	head_source
	organ_source
	muscle_source
	blood_temperature
	convection_heat_transfer
Done.

Building...
     mesh
	distributing mesh
		pairs....,
		parts....,
		faces....,
		nodes....,
		shadow nodes....,
		cells....,
        bandwidth reduction using Reverse Cuthill-McKee: 14875/334 = 44.5359
     materials,
     interface,
     domains,
	mixture
     zones,
	interior-part-muscle
	interior-part-head
	interior-part-organs
	wall-part-head
	wall-part-muscle
	interior-part-head-part-muscle
	interior-part-muscle-part-organs
	interior-part-head-part-muscle-shadow
	interior-part-muscle-part-organs-shadow
	part-head
	part-muscle
	part-organs
     parallel,
Done.

Reading from BME-BANER-01:"C:/Users/Research/Desktop/CBT_pred/cases/exercise/with_sweating/case_1/Exercise_Case_SteadyState.dat.h5" in NODE0 mode ...


  Reading results.
Parallel variables...
F_t: 308.665
t_skin: 35.5155
conv+sweat: -53.629
F_t: 308.396
t_skin: 35.2465
conv+sweat: -52.257
F_t: 308.715
t_skin: 35.5649
conv+sweat: -53.8809
F_t: 308.72
t_skin: 35.5703
conv+sweat: -53.9086
F_t: 308.479
t_skin: 35.3288
conv+sweat: -52.6766
F_t: 308.854
t_skin: 35.7044
conv+sweat: -54.5926
F_t: 308.325
t_skin: 35.1747
conv+sweat: -51.8907
F_t: 308.604
t_skin: 35.4541
conv+sweat: -53.3157
F_t: 308.689
t_skin: 35.5389
conv+sweat: -53.7486
F_t: 308.591
t_skin: 35.4411
conv+sweat: -53.2497
F_t: 308.572
t_skin: 35.4219
conv+sweat: -53.1519
F_t: 308.586
t_skin: 35.4356
conv+sweat: -53.2217
F_t: 308.689
t_skin: 35.539
conv+sweat: -53.7491
F_t: 308.646
t_skin: 35.4959
conv+sweat: -53.529
F_t: 308.812
t_skin: 35.6623
conv+sweat: -54.3778
F_t: 308.455
t_skin: 35.3055
conv+sweat: -52.5579
F_t: 308.178
t_skin: 35.0278
conv+sweat: -51.142
F_t: 308.626
t_skin: 35.4763
conv+sweat: -53.4292
F_t: 308.521
t_skin: 35.3708
conv+sweat: -52.8909
F_t: 308.369
t_skin: 35.2185
conv+sweat: -52.1146
F_t: 308.35
t_skin: 35.1996
conv+sweat: -52.0181
F_t: 308.282
t_skin: 35.1317
conv+sweat: -51.6718
F_t: 308.023
t_skin: 34.8734
conv+sweat: -50.3542
F_t: 308.169
t_skin: 35.0193
conv+sweat: -51.0985
F_t: 308.54
t_skin: 35.3898
conv+sweat: -52.9878
F_t: 308.774
t_skin: 35.6236
conv+sweat: -54.1806
F_t: 308.807
t_skin: 35.6567
conv+sweat: -54.3491
F_t: 308.769
t_skin: 35.619
conv+sweat: -54.1569
F_t: 308.983
t_skin: 35.8332
conv+sweat: -55.2495
F_t: 308.627
t_skin: 35.477
conv+sweat: -53.4325
F_t: 308.964
t_skin: 35.8136
conv+sweat: -55.1493
F_t: 308.785
t_skin: 35.6351
conv+sweat: -54.2388
F_t: 308.483
t_skin: 35.3329
conv+sweat: -52.6977
F_t: 308.61
t_skin: 35.4604
conv+sweat: -53.3483
F_t: 308.918
t_skin: 35.768
conv+sweat: -54.917
F_t: 308.865
t_skin: 35.715
conv+sweat: -54.6467
F_t: 308.897
t_skin: 35.7465
conv+sweat: -54.8072
F_t: 308.985
t_skin: 35.835
conv+sweat: -55.2586
F_t: 309.142
t_skin: 35.9922
conv+sweat: -56.06
F_t: 308.796
t_skin: 35.6464
conv+sweat: -54.2968
F_t: 309.148
t_skin: 35.9976
conv+sweat: -56.088
F_t: 308.812
t_skin: 35.6624
conv+sweat: -54.3783
F_t: 308.496
t_skin: 35.3463
conv+sweat: -52.7662
F_t: 308.259
t_skin: 35.1086
conv+sweat: -51.5537
F_t: 308.724
t_skin: 35.574
conv+sweat: -53.9271
F_t: 308.563
t_skin: 35.4131
conv+sweat: -53.107
F_t: 308.952
t_skin: 35.8022
conv+sweat: -55.0914
F_t: 308.394
t_skin: 35.2435
conv+sweat: -52.2419
F_t: 309.003
t_skin: 35.853
conv+sweat: -55.3503
F_t: 308.927
t_skin: 35.7768
conv+sweat: -54.9618
F_t: 308.897
t_skin: 35.7469
conv+sweat: -54.8093
F_t: 308.961
t_skin: 35.811
conv+sweat: -55.1362
F_t: 308.981
t_skin: 35.8307
conv+sweat: -55.2367
F_t: 308.906
t_skin: 35.7563
conv+sweat: -54.8569
F_t: 308.839
t_skin: 35.6885
conv+sweat: -54.5115
F_t: 308.805
t_skin: 35.6548
conv+sweat: -54.3393
F_t: 308.867
t_skin: 35.7173
conv+sweat: -54.6584
F_t: 308.539
t_skin: 35.3894
conv+sweat: -52.986
F_t: 307.898
t_skin: 34.7483
conv+sweat: -49.7164
F_t: 308.981
t_skin: 35.8307
conv+sweat: -55.2363
F_t: 308.94
t_skin: 35.7902
conv+sweat: -55.0302
F_t: 308.814
t_skin: 35.6637
conv+sweat: -54.385
F_t: 308.768
t_skin: 35.6178
conv+sweat: -54.151
F_t: 309.07
t_skin: 35.9195
conv+sweat: -55.6895
F_t: 308.91
t_skin: 35.76
conv+sweat: -54.8762
F_t: 309.13
t_skin: 35.9803
conv+sweat: -55.9997
F_t: 308.973
t_skin: 35.823
conv+sweat: -55.1971
F_t: 309.103
t_skin: 35.9527
conv+sweat: -55.8588
F_t: 308.965
t_skin: 35.8147
conv+sweat: -55.1547
F_t: 309.086
t_skin: 35.9363
conv+sweat: -55.7752
F_t: 308.817
t_skin: 35.6667
conv+sweat: -54.4002
F_t: 308.584
t_skin: 35.4338
conv+sweat: -53.2125
F_t: 308.867
t_skin: 35.7173
conv+sweat: -54.6584
F_t: 308.961
t_skin: 35.8114
conv+sweat: -55.1381
F_t: 308.735
t_skin: 35.5852
conv+sweat: -53.9847
F_t: 308.063
t_skin: 34.9135
conv+sweat: -50.5587
F_t: 308.746
t_skin: 35.5956
conv+sweat: -54.0378
F_t: 308.881
t_skin: 35.7308
conv+sweat: -54.7272
F_t: 308.969
t_skin: 35.8194
conv+sweat: -55.1791
F_t: 308.395
t_skin: 35.2453
conv+sweat: -52.2513
F_t: 308.95
t_skin: 35.7997
conv+sweat: -55.0787
F_t: 308.956
t_skin: 35.8058
conv+sweat: -55.1094
F_t: 308.784
t_skin: 35.6343
conv+sweat: -54.2351
F_t: 309.011
t_skin: 35.8614
conv+sweat: -55.3929
F_t: 308.98
t_skin: 35.8305
conv+sweat: -55.2355
F_t: 308.785
t_skin: 35.6351
conv+sweat: -54.2391
F_t: 308.665
t_skin: 35.5147
conv+sweat: -53.6248
F_t: 308.578
t_skin: 35.4276
conv+sweat: -53.181
F_t: 308.575
t_skin: 35.4246
conv+sweat: -53.1657
F_t: 308.387
t_skin: 35.2368
conv+sweat: -52.2078
F_t: 308.724
t_skin: 35.574
conv+sweat: -53.9274
F_t: 309.002
t_skin: 35.8521
conv+sweat: -55.3458
F_t: 308.923
t_skin: 35.7729
conv+sweat: -54.9418
F_t: 308.843
t_skin: 35.6929
conv+sweat: -54.534
F_t: 308.872
t_skin: 35.7216
conv+sweat: -54.6799
F_t: 308.75
t_skin: 35.5997
conv+sweat: -54.0585
F_t: 307.989
t_skin: 34.8388
conv+sweat: -50.1778
F_t: 308.831
t_skin: 35.6814
conv+sweat: -54.4752
F_t: 308.691
t_skin: 35.5407
conv+sweat: -53.7575
F_t: 309.013
t_skin: 35.8632
conv+sweat: -55.4023
F_t: 309.135
t_skin: 35.9854
conv+sweat: -56.0256
F_t: 308.904
t_skin: 35.7539
conv+sweat: -54.8447
F_t: 308.667
t_skin: 35.5175
conv+sweat: -53.6392
F_t: 308.396
t_skin: 35.2457
conv+sweat: -52.2533
F_t: 308.017
t_skin: 34.867
conv+sweat: -50.3216
F_t: 308.607
t_skin: 35.4568
conv+sweat: -53.3296
F_t: 308.499
t_skin: 35.3486
conv+sweat: -52.7779
F_t: 308.576
t_skin: 35.4262
conv+sweat: -53.1735
F_t: 308.843
t_skin: 35.6934
conv+sweat: -54.5363
F_t: 308.96
t_skin: 35.8098
conv+sweat: -55.1301
F_t: 308.921
t_skin: 35.7713
conv+sweat: -54.9336
F_t: 308.378
t_skin: 35.2277
conv+sweat: -52.1612
F_t: 308.876
t_skin: 35.7255
conv+sweat: -54.7001
F_t: 309.047
t_skin: 35.897
conv+sweat: -55.5747
F_t: 308.5
t_skin: 35.3501
conv+sweat: -52.7854
F_t: 309.053
t_skin: 35.9031
conv+sweat: -55.6059
F_t: 308.809
t_skin: 35.6587
conv+sweat: -54.3593
F_t: 308.453
t_skin: 35.3027
conv+sweat: -52.544
F_t: 308.191
t_skin: 35.041
conv+sweat: -51.2089
F_t: 308.855
t_skin: 35.7052
conv+sweat: -54.5963
F_t: 308.618
t_skin: 35.4684
conv+sweat: -53.389
F_t: 308.951
t_skin: 35.8012
conv+sweat: -55.086
F_t: 309.03
t_skin: 35.8802
conv+sweat: -55.4889
F_t: 308.571
t_skin: 35.4213
conv+sweat: -53.1488
F_t: 308.794
t_skin: 35.6441
conv+sweat: -54.2848
F_t: 308.949
t_skin: 35.7987
conv+sweat: -55.0735
F_t: 308.721
t_skin: 35.5715
conv+sweat: -53.9145
F_t: 308.333
t_skin: 35.1835
conv+sweat: -51.9356
F_t: 308.317
t_skin: 35.167
conv+sweat: -51.8518
F_t: 308.81
t_skin: 35.6602
conv+sweat: -54.3672
F_t: 309.179
t_skin: 36.0288
conv+sweat: -56.2469
F_t: 308.867
t_skin: 35.717
conv+sweat: -54.6569
F_t: 309.098
t_skin: 35.9482
conv+sweat: -55.8357
F_t: 309.009
t_skin: 35.8594
conv+sweat: -55.3829
F_t: 309.087
t_skin: 35.9371
conv+sweat: -55.7792
F_t: 309.02
t_skin: 35.8704
conv+sweat: -55.4388
F_t: 309.08
t_skin: 35.9302
conv+sweat: -55.7442
F_t: 308.644
t_skin: 35.4944
conv+sweat: -53.5216
F_t: 308.657
t_skin: 35.5074
conv+sweat: -53.5876
F_t: 308.867
t_skin: 35.7174
conv+sweat: -54.6587
F_t: 308.894
t_skin: 35.7442
conv+sweat: -54.7953
F_t: 308.925
t_skin: 35.7749
conv+sweat: -54.9519
F_t: 308.655
t_skin: 35.5051
conv+sweat: -53.576
F_t: 308.457
t_skin: 35.3068
conv+sweat: -52.5648
F_t: 308.965
t_skin: 35.8154
conv+sweat: -55.1587
F_t: 308.847
t_skin: 35.6974
conv+sweat: -54.557
F_t: 308.655
t_skin: 35.5045
conv+sweat: -53.5732
F_t: 308.623
t_skin: 35.4728
conv+sweat: -53.4115
F_t: 309.012
t_skin: 35.8619
conv+sweat: -55.3958
F_t: 309.066
t_skin: 35.9161
conv+sweat: -55.672
F_t: 309.054
t_skin: 35.9041
conv+sweat: -55.6111
F_t: 308.536
t_skin: 35.3859
conv+sweat: -52.9683
F_t: 308.595
t_skin: 35.4455
conv+sweat: -53.2718
F_t: 308.506
t_skin: 35.3558
conv+sweat: -52.8145
F_t: 309.02
t_skin: 35.8703
conv+sweat: -55.4386
F_t: 308.649
t_skin: 35.4994
conv+sweat: -53.5467
F_t: 308.754
t_skin: 35.6035
conv+sweat: -54.078
F_t: 308.456
t_skin: 35.3061
conv+sweat: -52.5611
F_t: 308.683
t_skin: 35.533
conv+sweat: -53.7182
F_t: 308.67
t_skin: 35.5202
conv+sweat: -53.6529
F_t: 308.906
t_skin: 35.7556
conv+sweat: -54.8535
F_t: 308.945
t_skin: 35.7952
conv+sweat: -55.0554
F_t: 308.757
t_skin: 35.6074
conv+sweat: -54.0978
F_t: 308.89
t_skin: 35.7399
conv+sweat: -54.7733
F_t: 309.106
t_skin: 35.9563
conv+sweat: -55.877
F_t: 309.001
t_skin: 35.851
conv+sweat: -55.3401
F_t: 309.055
t_skin: 35.9049
conv+sweat: -55.6151
F_t: 309.12
t_skin: 35.97
conv+sweat: -55.9471
F_t: 308.721
t_skin: 35.571
conv+sweat: -53.9123
F_t: 308.495
t_skin: 35.3455
conv+sweat: -52.7618
F_t: 308.835
t_skin: 35.6847
conv+sweat: -54.492
F_t: 308.644
t_skin: 35.4944
conv+sweat: -53.5215
F_t: 308.588
t_skin: 35.4377
conv+sweat: -53.2321
F_t: 308.936
t_skin: 35.7857
conv+sweat: -55.0071
F_t: 308.736
t_skin: 35.5861
conv+sweat: -53.9889
F_t: 308.938
t_skin: 35.7877
conv+sweat: -55.0172
F_t: 308.769
t_skin: 35.6189
conv+sweat: -54.1565
F_t: 308.799
t_skin: 35.6495
conv+sweat: -54.3123
F_t: 308.984
t_skin: 35.8339
conv+sweat: -55.2531
F_t: 309.061
t_skin: 35.9107
conv+sweat: -55.6443
F_t: 309.039
t_skin: 35.8894
conv+sweat: -55.5359
F_t: 308.379
t_skin: 35.2293
conv+sweat: -52.1696
F_t: 309.036
t_skin: 35.8859
conv+sweat: -55.5182
F_t: 308.981
t_skin: 35.8314
conv+sweat: -55.2399
F_t: 308.483
t_skin: 35.3331
conv+sweat: -52.6987
F_t: 308.638
t_skin: 35.4882
conv+sweat: -53.4899
F_t: 308.666
t_skin: 35.5161
conv+sweat: -53.6322
F_t: 308.933
t_skin: 35.7834
conv+sweat: -54.9954
F_t: 308.592
t_skin: 35.4418
conv+sweat: -53.2533
F_t: 308.599
t_skin: 35.4491
conv+sweat: -53.2906
F_t: 308.513
t_skin: 35.3634
conv+sweat: -52.8532
F_t: 308.825
t_skin: 35.6752
conv+sweat: -54.4435
F_t: 309.042
t_skin: 35.8918
conv+sweat: -55.5483
F_t: 308.527
t_skin: 35.3768
conv+sweat: -52.9216
F_t: 308.578
t_skin: 35.4277
conv+sweat: -53.1814
F_t: 308.727
t_skin: 35.5773
conv+sweat: -53.9441
F_t: 309.2
t_skin: 36.0502
conv+sweat: -56.3559
F_t: 309.064
t_skin: 35.9142
conv+sweat: -55.6623
F_t: 309.019
t_skin: 35.8693
conv+sweat: -55.4334
F_t: 308.488
t_skin: 35.3376
conv+sweat: -52.7216
F_t: 308.732
t_skin: 35.582
conv+sweat: -53.968
F_t: 308.559
t_skin: 35.409
conv+sweat: -53.0861
F_t: 308.896
t_skin: 35.746
conv+sweat: -54.8046
F_t: 309.103
t_skin: 35.9527
conv+sweat: -55.8587
F_t: 309.048
t_skin: 35.8977
conv+sweat: -55.5783
F_t: 308.86
t_skin: 35.7096
conv+sweat: -54.6188
F_t: 308.645
t_skin: 35.495
conv+sweat: -53.5246
F_t: 308.569
t_skin: 35.4194
conv+sweat: -53.1387
F_t: 308.376
t_skin: 35.2262
conv+sweat: -52.1539
F_t: 308.682
t_skin: 35.5325
conv+sweat: -53.7156
F_t: 308.813
t_skin: 35.6634
conv+sweat: -54.3835
F_t: 308.83
t_skin: 35.6802
conv+sweat: -54.4689
F_t: 308.937
t_skin: 35.7866
conv+sweat: -55.0116
F_t: 308.703
t_skin: 35.5529
conv+sweat: -53.8197
F_t: 308.758
t_skin: 35.608
conv+sweat: -54.1006
F_t: 309.021
t_skin: 35.8706
conv+sweat: -55.4399
F_t: 308.672
t_skin: 35.5223
conv+sweat: -53.6637
F_t: 308.824
t_skin: 35.6737
conv+sweat: -54.4359
F_t: 308.457
t_skin: 35.3071
conv+sweat: -52.5661
F_t: 308.465
t_skin: 35.3152
conv+sweat: -52.6075
F_t: 309.038
t_skin: 35.8876
conv+sweat: -55.5266
F_t: 308.925
t_skin: 35.7746
conv+sweat: -54.9503
F_t: 308.992
t_skin: 35.8423
conv+sweat: -55.2959
F_t: 309.098
t_skin: 35.9484
conv+sweat: -55.8367
F_t: 309.212
t_skin: 36.0625
conv+sweat: -56.4185
F_t: 308.965
t_skin: 35.8149
conv+sweat: -55.1561
F_t: 309.037
t_skin: 35.887
conv+sweat: -55.5237
F_t: 308.723
t_skin: 35.5729
conv+sweat: -53.9216
F_t: 308.641
t_skin: 35.4909
conv+sweat: -53.5038
F_t: 309.129
t_skin: 35.9786
conv+sweat: -55.991
F_t: 309.095
t_skin: 35.9451
conv+sweat: -55.82
F_t: 308.695
t_skin: 35.5448
conv+sweat: -53.7786
F_t: 308.745
t_skin: 35.595
conv+sweat: -54.0344
F_t: 308.863
t_skin: 35.7134
conv+sweat: -54.6385
F_t: 308.839
t_skin: 35.6894
conv+sweat: -54.5159
F_t: 308.647
t_skin: 35.4966
conv+sweat: -53.5329
F_t: 308.819
t_skin: 35.6693
conv+sweat: -54.4136
F_t: 308.768
t_skin: 35.6183
conv+sweat: -54.1532
F_t: 308.886
t_skin: 35.7358
conv+sweat: -54.7526
F_t: 309.004
t_skin: 35.8541
conv+sweat: -55.3559
F_t: 309.05
t_skin: 35.9004
conv+sweat: -55.5922
F_t: 308.503
t_skin: 35.3531
conv+sweat: -52.801
F_t: 308.495
t_skin: 35.3452
conv+sweat: -52.7603
F_t: 309.066
t_skin: 35.9156
conv+sweat: -55.6693
F_t: 309.061
t_skin: 35.9111
conv+sweat: -55.6464
F_t: 308.979
t_skin: 35.8294
conv+sweat: -55.2298
F_t: 308.766
t_skin: 35.6159
conv+sweat: -54.141
F_t: 308.784
t_skin: 35.6335
conv+sweat: -54.2309
F_t: 308.831
t_skin: 35.6813
conv+sweat: -54.4744
F_t: 308.842
t_skin: 35.6921
conv+sweat: -54.5299
F_t: 308.868
t_skin: 35.7179
conv+sweat: -54.6614
F_t: 308.546
t_skin: 35.3962
conv+sweat: -53.0204
F_t: 309.05
t_skin: 35.8997
conv+sweat: -55.5885
F_t: 308.788
t_skin: 35.6377
conv+sweat: -54.2523
F_t: 309.086
t_skin: 35.9363
conv+sweat: -55.7751
F_t: 308.727
t_skin: 35.5773
conv+sweat: -53.9444
F_t: 308.614
t_skin: 35.4644
conv+sweat: -53.3686
F_t: 308.593
t_skin: 35.4426
conv+sweat: -53.2575
F_t: 308.701
t_skin: 35.5515
conv+sweat: -53.8126
F_t: 308.649
t_skin: 35.4994
conv+sweat: -53.547
F_t: 308.257
t_skin: 35.1072
conv+sweat: -51.5468
F_t: 308.78
t_skin: 35.6303
conv+sweat: -54.2147
F_t: 308.782
t_skin: 35.6315
conv+sweat: -54.2209
F_t: 308.824
t_skin: 35.674
conv+sweat: -54.4373
F_t: 308.563
t_skin: 35.4133
conv+sweat: -53.1079
F_t: 308.58
t_skin: 35.4302
conv+sweat: -53.1941
F_t: 308.594
t_skin: 35.4444
conv+sweat: -53.2667
F_t: 309
t_skin: 35.8505
conv+sweat: -55.3374
F_t: 308.628
t_skin: 35.4779
conv+sweat: -53.4374
F_t: 308.485
t_skin: 35.3349
conv+sweat: -52.708
F_t: 308.806
t_skin: 35.656
conv+sweat: -54.3457
F_t: 308.982
t_skin: 35.8318
conv+sweat: -55.242
F_t: 308.909
t_skin: 35.7587
conv+sweat: -54.8696
F_t: 308.538
t_skin: 35.3879
conv+sweat: -52.9785
F_t: 309.063
t_skin: 35.9133
conv+sweat: -55.6576
F_t: 308.761
t_skin: 35.6106
conv+sweat: -54.1143
F_t: 309.214
t_skin: 36.0643
conv+sweat: -56.4278
F_t: 309.062
t_skin: 35.912
conv+sweat: -55.6514
F_t: 308.984
t_skin: 35.8345
conv+sweat: -55.2558
F_t: 309.095
t_skin: 35.9452
conv+sweat: -55.8207
F_t: 308.891
t_skin: 35.7414
conv+sweat: -54.7811
F_t: 308.621
t_skin: 35.4713
conv+sweat: -53.4035
F_t: 308.902
t_skin: 35.7517
conv+sweat: -54.8335
F_t: 308.615
t_skin: 35.4654
conv+sweat: -53.3735
F_t: 308.912
t_skin: 35.7619
conv+sweat: -54.8857
F_t: 309.032
t_skin: 35.8822
conv+sweat: -55.4993
F_t: 309.113
t_skin: 35.9632
conv+sweat: -55.9123
F_t: 308.893
t_skin: 35.7426
conv+sweat: -54.7871
F_t: 308.208
t_skin: 35.0575
conv+sweat: -51.2935
F_t: 308.461
t_skin: 35.3111
conv+sweat: -52.5869
F_t: 308.977
t_skin: 35.8268
conv+sweat: -55.2164
F_t: 308.954
t_skin: 35.8043
conv+sweat: -55.1018
F_t: 308.671
t_skin: 35.5206
conv+sweat: -53.6549
F_t: 308.24
t_skin: 35.0905
conv+sweat: -51.4613
F_t: 308.967
t_skin: 35.8174
conv+sweat: -55.1685
F_t: 308.899
t_skin: 35.7493
conv+sweat: -54.8215
F_t: 308.589
t_skin: 35.4393
conv+sweat: -53.2405
F_t: 308.36
t_skin: 35.2104
conv+sweat: -52.073
F_t: 308.641
t_skin: 35.4915
conv+sweat: -53.5065
F_t: 308.801
t_skin: 35.6507
conv+sweat: -54.3185
F_t: 309.111
t_skin: 35.9607
conv+sweat: -55.8997
F_t: 308.246
t_skin: 35.0961
conv+sweat: -51.49
F_t: 308.445
t_skin: 35.2947
conv+sweat: -52.5029
F_t: 308.182
t_skin: 35.0318
conv+sweat: -51.1623
F_t: 308.489
t_skin: 35.339
conv+sweat: -52.7289
F_t: 308.792
t_skin: 35.6422
conv+sweat: -54.2752
F_t: 309.127
t_skin: 35.9773
conv+sweat: -55.9843
F_t: 308.98
t_skin: 35.8303
conv+sweat: -55.2347
F_t: 309.064
t_skin: 35.9136
conv+sweat: -55.6594
F_t: 308.462
t_skin: 35.312
conv+sweat: -52.5914
F_t: 308.863
t_skin: 35.7128
conv+sweat: -54.635
F_t: 308.717
t_skin: 35.5674
conv+sweat: -53.8939
F_t: 308.56
t_skin: 35.4096
conv+sweat: -53.0892
F_t: 309.037
t_skin: 35.8872
conv+sweat: -55.5248
F_t: 309.053
t_skin: 35.9027
conv+sweat: -55.6039
F_t: 308.891
t_skin: 35.7412
conv+sweat: -54.7802
F_t: 308.483
t_skin: 35.3332
conv+sweat: -52.6995
F_t: 308.815
t_skin: 35.6649
conv+sweat: -54.391
F_t: 308.648
t_skin: 35.4978
conv+sweat: -53.5387
F_t: 308.471
t_skin: 35.3214
conv+sweat: -52.6393
F_t: 308.283
t_skin: 35.1332
conv+sweat: -51.6794
F_t: 308.75
t_skin: 35.6004
conv+sweat: -54.0622
F_t: 308.642
t_skin: 35.4925
conv+sweat: -53.5117
F_t: 308.764
t_skin: 35.6144
conv+sweat: -54.1333
F_t: 308.112
t_skin: 34.9622
conv+sweat: -50.8072
F_t: 308.89
t_skin: 35.7402
conv+sweat: -54.7753
F_t: 308.593
t_skin: 35.4428
conv+sweat: -53.2584
F_t: 308.954
t_skin: 35.8037
conv+sweat: -55.0989
F_t: 308.842
t_skin: 35.6924
conv+sweat: -54.5312
F_t: 308.739
t_skin: 35.589
conv+sweat: -54.0041
F_t: 308.817
t_skin: 35.6674
conv+sweat: -54.4038
F_t: 308.809
t_skin: 35.6586
conv+sweat: -54.359
F_t: 308.69
t_skin: 35.5397
conv+sweat: -53.7526
F_t: 308.774
t_skin: 35.624
conv+sweat: -54.1826
F_t: 308.875
t_skin: 35.7249
conv+sweat: -54.6971
F_t: 308.7
t_skin: 35.5499
conv+sweat: -53.8043
F_t: 308.981
t_skin: 35.8312
conv+sweat: -55.2389
F_t: 308.728
t_skin: 35.5785
conv+sweat: -53.9503
F_t: 309.113
t_skin: 35.9629
conv+sweat: -55.9107
F_t: 309.062
t_skin: 35.9122
conv+sweat: -55.6524
F_t: 308.945
t_skin: 35.7952
conv+sweat: -55.0557
F_t: 309.115
t_skin: 35.9649
conv+sweat: -55.921
F_t: 308.771
t_skin: 35.6207
conv+sweat: -54.1654
F_t: 308.774
t_skin: 35.6243
conv+sweat: -54.1837
F_t: 308.656
t_skin: 35.5064
conv+sweat: -53.5828
F_t: 309.014
t_skin: 35.8642
conv+sweat: -55.4073
F_t: 309.09
t_skin: 35.9396
conv+sweat: -55.7922
F_t: 309.073
t_skin: 35.9234
conv+sweat: -55.7091
F_t: 308.973
t_skin: 35.8232
conv+sweat: -55.1984
F_t: 308.711
t_skin: 35.5614
conv+sweat: -53.8631
F_t: 309.088
t_skin: 35.9379
conv+sweat: -55.7833
F_t: 308.803
t_skin: 35.6528
conv+sweat: -54.3293
F_t: 308.807
t_skin: 35.6568
conv+sweat: -54.3494
F_t: 308.387
t_skin: 35.2366
conv+sweat: -52.2067
F_t: 307.752
t_skin: 34.6018
conv+sweat: -48.9693
F_t: 308.941
t_skin: 35.791
conv+sweat: -55.0341
F_t: 308.76
t_skin: 35.61
conv+sweat: -54.111
F_t: 308.757
t_skin: 35.6073
conv+sweat: -54.0972
F_t: 308.736
t_skin: 35.5855
conv+sweat: -53.9862
F_t: 308.485
t_skin: 35.3355
conv+sweat: -52.711
F_t: 308.353
t_skin: 35.2029
conv+sweat: -52.0345
F_t: 308.944
t_skin: 35.7937
conv+sweat: -55.048
F_t: 308.946
t_skin: 35.7962
conv+sweat: -55.0608
F_t: 308.543
t_skin: 35.393
conv+sweat: -53.0044
F_t: 308.353
t_skin: 35.2028
conv+sweat: -52.034
F_t: 308.721
t_skin: 35.5714
conv+sweat: -53.9141
F_t: 308.615
t_skin: 35.4654
conv+sweat: -53.3735
F_t: 308.562
t_skin: 35.4117
conv+sweat: -53.0997
F_t: 308.958
t_skin: 35.8076
conv+sweat: -55.1185
F_t: 309.063
t_skin: 35.9125
conv+sweat: -55.6538
F_t: 308.767
t_skin: 35.6168
conv+sweat: -54.1457
F_t: 308.923
t_skin: 35.7731
conv+sweat: -54.9427
F_t: 308.966
t_skin: 35.8156
conv+sweat: -55.1596
F_t: 309.174
t_skin: 36.0241
conv+sweat: -56.223
F_t: 308.958
t_skin: 35.8084
conv+sweat: -55.1228
F_t: 308.946
t_skin: 35.7962
conv+sweat: -55.0606
F_t: 308.742
t_skin: 35.5922
conv+sweat: -54.02
F_t: 308.711
t_skin: 35.5606
conv+sweat: -53.859
F_t: 308.95
t_skin: 35.7998
conv+sweat: -55.0788
F_t: 308.691
t_skin: 35.541
conv+sweat: -53.7593
F_t: 308.589
t_skin: 35.4387
conv+sweat: -53.2376
F_t: 308.37
t_skin: 35.2195
conv+sweat: -52.1195
F_t: 308.363
t_skin: 35.2134
conv+sweat: -52.0882
F_t: 308.941
t_skin: 35.7907
conv+sweat: -55.0325
F_t: 308.822
t_skin: 35.672
conv+sweat: -54.4274
F_t: 309.318
t_skin: 36.1676
conv+sweat: -56.955
F_t: 308.871
t_skin: 35.7209
conv+sweat: -54.6766
F_t: 308.003
t_skin: 34.8534
conv+sweat: -50.2523
F_t: 308.839
t_skin: 35.6887
conv+sweat: -54.5122
F_t: 308.644
t_skin: 35.4941
conv+sweat: -53.52
F_t: 308.441
t_skin: 35.2915
conv+sweat: -52.4864
F_t: 308.715
t_skin: 35.5653
conv+sweat: -53.883
F_t: 308.41
t_skin: 35.2596
conv+sweat: -52.3241
F_t: 308.475
t_skin: 35.3254
conv+sweat: -52.6594
F_t: 308.223
t_skin: 35.0731
conv+sweat: -51.373
F_t: 308.374
t_skin: 35.2244
conv+sweat: -52.1445
F_t: 308.477
t_skin: 35.3268
conv+sweat: -52.6667
F_t: 308.294
t_skin: 35.1443
conv+sweat: -51.736
F_t: 308.865
t_skin: 35.7149
conv+sweat: -54.646
F_t: 308.92
t_skin: 35.7695
conv+sweat: -54.9246
F_t: 308.789
t_skin: 35.6394
conv+sweat: -54.2609
F_t: 308.999
t_skin: 35.8488
conv+sweat: -55.3288
F_t: 309.003
t_skin: 35.8535
conv+sweat: -55.3527
F_t: 308.645
t_skin: 35.4952
conv+sweat: -53.5255
F_t: 308.997
t_skin: 35.8472
conv+sweat: -55.3207
F_t: 309.032
t_skin: 35.8821
conv+sweat: -55.4987
F_t: 309.115
t_skin: 35.9648
conv+sweat: -55.9207
F_t: 308.963
t_skin: 35.8129
conv+sweat: -55.1456
F_t: 308.71
t_skin: 35.5599
conv+sweat: -53.8556
F_t: 308.629
t_skin: 35.4792
conv+sweat: -53.4439
F_t: 308.921
t_skin: 35.771
conv+sweat: -54.9322
F_t: 308.379
t_skin: 35.2286
conv+sweat: -52.1661
F_t: 308.826
t_skin: 35.6761
conv+sweat: -54.4482
F_t: 308.276
t_skin: 35.126
conv+sweat: -51.6426
F_t: 308.321
t_skin: 35.1706
conv+sweat: -51.8703
F_t: 308.488
t_skin: 35.3375
conv+sweat: -52.7213
F_t: 308.786
t_skin: 35.6356
conv+sweat: -54.2414
F_t: 309.029
t_skin: 35.8789
conv+sweat: -55.4825
F_t: 308.525
t_skin: 35.3754
conv+sweat: -52.9147
F_t: 308.262
t_skin: 35.1122
conv+sweat: -51.5724
F_t: 308.57
t_skin: 35.4199
conv+sweat: -53.1417
F_t: 308.945
t_skin: 35.7947
conv+sweat: -55.0532
F_t: 308.488
t_skin: 35.338
conv+sweat: -52.7238
F_t: 308.523
t_skin: 35.3729
conv+sweat: -52.902
F_t: 308.585
t_skin: 35.4354
conv+sweat: -53.2204
F_t: 308.959
t_skin: 35.8095
conv+sweat: -55.1284
F_t: 308.917
t_skin: 35.767
conv+sweat: -54.9119
F_t: 309.153
t_skin: 36.0033
conv+sweat: -56.117
F_t: 308.586
t_skin: 35.4363
conv+sweat: -53.2253
F_t: 308.965
t_skin: 35.8154
conv+sweat: -55.1583
F_t: 308.844
t_skin: 35.6936
conv+sweat: -54.5374
F_t: 308.251
t_skin: 35.1011
conv+sweat: -51.5154
F_t: 308.229
t_skin: 35.0792
conv+sweat: -51.4041
F_t: 308.509
t_skin: 35.3591
conv+sweat: -52.8316
F_t: 307.921
t_skin: 34.7709
conv+sweat: -49.8316
F_t: 308.808
t_skin: 35.6583
conv+sweat: -54.3574
F_t: 308.967
t_skin: 35.8175
conv+sweat: -55.1692
F_t: 308.95
t_skin: 35.8001
conv+sweat: -55.0805
F_t: 308.708
t_skin: 35.5578
conv+sweat: -53.8448
F_t: 308.675
t_skin: 35.5254
conv+sweat: -53.6796
F_t: 308.35
t_skin: 35.1999
conv+sweat: -52.0195
F_t: 308.498
t_skin: 35.348
conv+sweat: -52.7749
F_t: 308.951
t_skin: 35.8006
conv+sweat: -55.0828
F_t: 308.95
t_skin: 35.8
conv+sweat: -55.08
F_t: 308.689
t_skin: 35.5388
conv+sweat: -53.748
F_t: 308.435
t_skin: 35.285
conv+sweat: -52.4533
F_t: 308.319
t_skin: 35.1688
conv+sweat: -51.8609
F_t: 308.818
t_skin: 35.6681
conv+sweat: -54.4074
F_t: 308.868
t_skin: 35.7183
conv+sweat: -54.6631
F_t: 308.488
t_skin: 35.3375
conv+sweat: -52.7213
F_t: 309.015
t_skin: 35.8646
conv+sweat: -55.4093
F_t: 308.969
t_skin: 35.819
conv+sweat: -55.177
F_t: 309.179
t_skin: 36.029
conv+sweat: -56.2481
F_t: 308.607
t_skin: 35.4569
conv+sweat: -53.3304
F_t: 308.955
t_skin: 35.8053
conv+sweat: -55.1072
F_t: 308.922
t_skin: 35.7718
conv+sweat: -54.9364
F_t: 308.654
t_skin: 35.504
conv+sweat: -53.5706
F_t: 308.916
t_skin: 35.7658
conv+sweat: -54.9057
F_t: 307.877
t_skin: 34.7266
conv+sweat: -49.6056
F_t: 308.955
t_skin: 35.8046
conv+sweat: -55.1036
F_t: 308.71
t_skin: 35.5601
conv+sweat: -53.8564
F_t: 309.028
t_skin: 35.8784
conv+sweat: -55.4796
F_t: 308.997
t_skin: 35.8473
conv+sweat: -55.321
F_t: 309.058
t_skin: 35.9084
conv+sweat: -55.6329
F_t: 308.978
t_skin: 35.8279
conv+sweat: -55.2223
F_t: 308.973
t_skin: 35.8226
conv+sweat: -55.195
F_t: 308.532
t_skin: 35.3819
conv+sweat: -52.9476
F_t: 308.409
t_skin: 35.2588
conv+sweat: -52.3197
F_t: 308.971
t_skin: 35.8211
conv+sweat: -55.1878
F_t: 308.824
t_skin: 35.6745
conv+sweat: -54.4398
F_t: 308.108
t_skin: 34.9576
conv+sweat: -50.7835
F_t: 308.381
t_skin: 35.2311
conv+sweat: -52.1784
F_t: 308.38
t_skin: 35.23
conv+sweat: -52.1732
F_t: 308.114
t_skin: 34.9645
conv+sweat: -50.8188
F_t: 308.057
t_skin: 34.9065
conv+sweat: -50.5234
F_t: 308.406
t_skin: 35.2561
conv+sweat: -52.3062
F_t: 308.711
t_skin: 35.5613
conv+sweat: -53.8628
F_t: 308.62
t_skin: 35.47
conv+sweat: -53.397
F_t: 308.237
t_skin: 35.0867
conv+sweat: -51.4419
F_t: 308.505
t_skin: 35.3547
conv+sweat: -52.8089
F_t: 308.723
t_skin: 35.5728
conv+sweat: -53.9211
F_t: 309.075
t_skin: 35.9247
conv+sweat: -55.7161
F_t: 308.628
t_skin: 35.4775
conv+sweat: -53.4353
F_t: 308.886
t_skin: 35.7355
conv+sweat: -54.7513
F_t: 308.532
t_skin: 35.3818
conv+sweat: -52.9474
F_t: 308.575
t_skin: 35.4252
conv+sweat: -53.1686
F_t: 308.942
t_skin: 35.7919
conv+sweat: -55.0387
F_t: 309.049
t_skin: 35.8995
conv+sweat: -55.5874
F_t: 309
t_skin: 35.8503
conv+sweat: -55.3364
F_t: 308.722
t_skin: 35.5724
conv+sweat: -53.9191
F_t: 308.407
t_skin: 35.2571
conv+sweat: -52.3113
F_t: 308.856
t_skin: 35.7057
conv+sweat: -54.5991
F_t: 308.634
t_skin: 35.4839
conv+sweat: -53.4676
F_t: 309.027
t_skin: 35.877
conv+sweat: -55.4728
F_t: 309.003
t_skin: 35.8526
conv+sweat: -55.3485
F_t: 309.055
t_skin: 35.9052
conv+sweat: -55.6167
F_t: 309.048
t_skin: 35.898
conv+sweat: -55.5797
F_t: 309.06
t_skin: 35.9103
conv+sweat: -55.6424
F_t: 308.073
t_skin: 34.9228
conv+sweat: -50.606
F_t: 308.407
t_skin: 35.2567
conv+sweat: -52.309
F_t: 308.429
t_skin: 35.2789
conv+sweat: -52.4223
F_t: 308.627
t_skin: 35.4768
conv+sweat: -53.4316
F_t: 308.478
t_skin: 35.3282
conv+sweat: -52.6741
F_t: 308.535
t_skin: 35.3846
conv+sweat: -52.9616
F_t: 308.248
t_skin: 35.0978
conv+sweat: -51.4985
F_t: 308.413
t_skin: 35.2627
conv+sweat: -52.3396
F_t: 309.102
t_skin: 35.9519
conv+sweat: -55.8547
F_t: 308.511
t_skin: 35.3609
conv+sweat: -52.8405
F_t: 308.518
t_skin: 35.3675
conv+sweat: -52.8744
F_t: 308.819
t_skin: 35.6685
conv+sweat: -54.4094
F_t: 308.529
t_skin: 35.379
conv+sweat: -52.933
F_t: 308.803
t_skin: 35.6531
conv+sweat: -54.331
F_t: 308.424
t_skin: 35.274
conv+sweat: -52.3976
F_t: 308.909
t_skin: 35.759
conv+sweat: -54.8708
F_t: 308.94
t_skin: 35.7904
conv+sweat: -55.0312
F_t: 308.987
t_skin: 35.8368
conv+sweat: -55.2675
F_t: 308.941
t_skin: 35.7912
conv+sweat: -55.0351
F_t: 309.038
t_skin: 35.8885
conv+sweat: -55.5313
F_t: 308.789
t_skin: 35.6389
conv+sweat: -54.2583
F_t: 308.971
t_skin: 35.8205
conv+sweat: -55.1847
F_t: 308.739
t_skin: 35.5891
conv+sweat: -54.0046
F_t: 308.034
t_skin: 34.8844
conv+sweat: -50.4103
F_t: 308.829
t_skin: 35.6786
conv+sweat: -54.4608
F_t: 308.543
t_skin: 35.3925
conv+sweat: -53.0018
F_t: 308.65
t_skin: 35.4996
conv+sweat: -53.548
F_t: 308.794
t_skin: 35.6437
conv+sweat: -54.2831
F_t: 308.983
t_skin: 35.8326
conv+sweat: -55.246
F_t: 308.641
t_skin: 35.491
conv+sweat: -53.5042
F_t: 308.814
t_skin: 35.6642
conv+sweat: -54.3872
F_t: 308.975
t_skin: 35.8249
conv+sweat: -55.2067
F_t: 309.047
t_skin: 35.8969
conv+sweat: -55.5744
F_t: 309.061
t_skin: 35.9108
conv+sweat: -55.645
F_t: 308.94
t_skin: 35.7895
conv+sweat: -55.0266
F_t: 308.392
t_skin: 35.2424
conv+sweat: -52.2364
F_t: 308.9
t_skin: 35.7502
conv+sweat: -54.8262
F_t: 308.702
t_skin: 35.5523
conv+sweat: -53.8168
F_t: 308.376
t_skin: 35.2264
conv+sweat: -52.1549
F_t: 308.367
t_skin: 35.2173
conv+sweat: -52.1082
F_t: 308.562
t_skin: 35.4123
conv+sweat: -53.1028
F_t: 308.29
t_skin: 35.1403
conv+sweat: -51.7155
F_t: 308.393
t_skin: 35.2426
conv+sweat: -52.2371
F_t: 308.338
t_skin: 35.1883
conv+sweat: -51.9604
F_t: 308.24
t_skin: 35.0902
conv+sweat: -51.4602
F_t: 308.608
t_skin: 35.4584
conv+sweat: -53.3376
F_t: 308.029
t_skin: 34.8787
conv+sweat: -50.3813
F_t: 308.424
t_skin: 35.2737
conv+sweat: -52.3957
F_t: 308.771
t_skin: 35.6215
conv+sweat: -54.1695
F_t: 308.308
t_skin: 35.1581
conv+sweat: -51.8064
F_t: 308.772
t_skin: 35.6223
conv+sweat: -54.1736
F_t: 308.399
t_skin: 35.2488
conv+sweat: -52.269
F_t: 308.635
t_skin: 35.4849
conv+sweat: -53.4731
F_t: 308.536
t_skin: 35.3865
conv+sweat: -52.9711
F_t: 308.474
t_skin: 35.3242
conv+sweat: -52.6533
F_t: 308.868
t_skin: 35.7183
conv+sweat: -54.6632
F_t: 308.975
t_skin: 35.8251
conv+sweat: -55.2082
F_t: 309.003
t_skin: 35.8531
conv+sweat: -55.3508
F_t: 308.823
t_skin: 35.6727
conv+sweat: -54.4309
F_t: 308.875
t_skin: 35.7255
conv+sweat: -54.7
F_t: 308.252
t_skin: 35.1018
conv+sweat: -51.5191
F_t: 308.728
t_skin: 35.5782
conv+sweat: -53.9486
F_t: 309.019
t_skin: 35.8687
conv+sweat: -55.4303
F_t: 308.873
t_skin: 35.7234
conv+sweat: -54.6895
F_t: 308.65
t_skin: 35.4996
conv+sweat: -53.5479
F_t: 308.905
t_skin: 35.7553
conv+sweat: -54.8523
F_t: 309.079
t_skin: 35.9293
conv+sweat: -55.7393
F_t: 309.051
t_skin: 35.9014
conv+sweat: -55.5973
F_t: 309.182
t_skin: 36.0316
conv+sweat: -56.2613
F_t: 308.739
t_skin: 35.5891
conv+sweat: -54.0044
F_t: 309.191
t_skin: 36.0408
conv+sweat: -56.3081
F_t: 309.038
t_skin: 35.8879
conv+sweat: -55.5281
F_t: 309.14
t_skin: 35.9905
conv+sweat: -56.0513
F_t: 308.629
t_skin: 35.4788
conv+sweat: -53.4418
F_t: 309.118
t_skin: 35.9684
conv+sweat: -55.9389
F_t: 308.803
t_skin: 35.653
conv+sweat: -54.3305
F_t: 308.492
t_skin: 35.3417
conv+sweat: -52.7426
F_t: 308.397
t_skin: 35.2466
conv+sweat: -52.2579
F_t: 308.199
t_skin: 35.0494
conv+sweat: -51.252
F_t: 308.517
t_skin: 35.3669
conv+sweat: -52.8712
F_t: 307.986
t_skin: 34.8359
conv+sweat: -50.1631
F_t: 307.969
t_skin: 34.8193
conv+sweat: -50.0784
F_t: 308.207
t_skin: 35.0574
conv+sweat: -51.2925
F_t: 308.122
t_skin: 34.9724
conv+sweat: -50.859
F_t: 308.561
t_skin: 35.4105
conv+sweat: -53.0937
F_t: 308.585
t_skin: 35.4347
conv+sweat: -53.2172
F_t: 308.405
t_skin: 35.2548
conv+sweat: -52.2993
F_t: 308.756
t_skin: 35.6061
conv+sweat: -54.0909
F_t: 308.635
t_skin: 35.4854
conv+sweat: -53.4756
F_t: 308.359
t_skin: 35.2094
conv+sweat: -52.068
F_t: 309.127
t_skin: 35.9765
conv+sweat: -55.9803
F_t: 308.475
t_skin: 35.3253
conv+sweat: -52.6592
F_t: 308.963
t_skin: 35.8132
conv+sweat: -55.1471
F_t: 308.855
t_skin: 35.7048
conv+sweat: -54.5942
F_t: 308.662
t_skin: 35.5123
conv+sweat: -53.6126
F_t: 309.066
t_skin: 35.916
conv+sweat: -55.6717
F_t: 309.199
t_skin: 36.0492
conv+sweat: -56.3508
F_t: 309.174
t_skin: 36.0241
conv+sweat: -56.2231
F_t: 309.048
t_skin: 35.8981
conv+sweat: -55.5803
F_t: 308.955
t_skin: 35.8049
conv+sweat: -55.1052
F_t: 308.671
t_skin: 35.5208
conv+sweat: -53.6561
F_t: 308.211
t_skin: 35.0607
conv+sweat: -51.3095
F_t: 308.983
t_skin: 35.8331
conv+sweat: -55.2489
F_t: 308.977
t_skin: 35.827
conv+sweat: -55.2179
F_t: 308.891
t_skin: 35.7415
conv+sweat: -54.7814
F_t: 308.841
t_skin: 35.6914
conv+sweat: -54.526
F_t: 309.02
t_skin: 35.8704
conv+sweat: -55.4392
F_t: 308.663
t_skin: 35.5132
conv+sweat: -53.6172
F_t: 308.545
t_skin: 35.3955
conv+sweat: -53.017
F_t: 308.552
t_skin: 35.4017
conv+sweat: -53.0489
F_t: 308.969
t_skin: 35.8192
conv+sweat: -55.1779
F_t: 308.87
t_skin: 35.7202
conv+sweat: -54.6732
F_t: 308.736
t_skin: 35.5857
conv+sweat: -53.9872
F_t: 308.302
t_skin: 35.152
conv+sweat: -51.7752
F_t: 308.078
t_skin: 34.9282
conv+sweat: -50.6336
F_t: 308.387
t_skin: 35.2372
conv+sweat: -52.2099
F_t: 308.187
t_skin: 35.0373
conv+sweat: -51.1901
F_t: 308.587
t_skin: 35.437
conv+sweat: -53.2288
F_t: 308.275
t_skin: 35.1253
conv+sweat: -51.6392
F_t: 308.75
t_skin: 35.6
conv+sweat: -54.06
F_t: 308.325
t_skin: 35.1754
conv+sweat: -51.8946
F_t: 308.733
t_skin: 35.5832
conv+sweat: -53.9743
F_t: 308.864
t_skin: 35.7139
conv+sweat: -54.6411
F_t: 308.635
t_skin: 35.4846
conv+sweat: -53.4712
F_t: 308.436
t_skin: 35.2862
conv+sweat: -52.4596
F_t: 308.453
t_skin: 35.3031
conv+sweat: -52.546
F_t: 309.032
t_skin: 35.8824
conv+sweat: -55.5002
F_t: 308.666
t_skin: 35.5158
conv+sweat: -53.6304
F_t: 308.781
t_skin: 35.6311
conv+sweat: -54.2184
F_t: 308.543
t_skin: 35.3931
conv+sweat: -53.0049
F_t: 308.761
t_skin: 35.6106
conv+sweat: -54.1139
F_t: 308.243
t_skin: 35.093
conv+sweat: -51.4744
F_t: 308.884
t_skin: 35.7342
conv+sweat: -54.7443
F_t: 308.875
t_skin: 35.7249
conv+sweat: -54.6971
F_t: 308.64
t_skin: 35.4898
conv+sweat: -53.498
F_t: 308.902
t_skin: 35.7518
conv+sweat: -54.834
F_t: 308.835
t_skin: 35.685
conv+sweat: -54.4933
F_t: 309.052
t_skin: 35.9023
conv+sweat: -55.6016
F_t: 309.261
t_skin: 36.1107
conv+sweat: -56.6648
F_t: 309.079
t_skin: 35.9288
conv+sweat: -55.7369
F_t: 308.734
t_skin: 35.5842
conv+sweat: -53.9794
F_t: 308.787
t_skin: 35.637
conv+sweat: -54.2485
F_t: 308.919
t_skin: 35.7689
conv+sweat: -54.9213
F_t: 308.979
t_skin: 35.8292
conv+sweat: -55.2289
F_t: 308.823
t_skin: 35.6733
conv+sweat: -54.4339
F_t: 308.992
t_skin: 35.8424
conv+sweat: -55.2962
F_t: 309.004
t_skin: 35.8535
conv+sweat: -55.3529
F_t: 308.92
t_skin: 35.7701
conv+sweat: -54.9273
F_t: 309.053
t_skin: 35.9031
conv+sweat: -55.606
F_t: 308.951
t_skin: 35.8011
conv+sweat: -55.0856
F_t: 308.905
t_skin: 35.7545
conv+sweat: -54.848
F_t: 308.925
t_skin: 35.7751
conv+sweat: -54.9529
F_t: 308.451
t_skin: 35.3013
conv+sweat: -52.5368
F_t: 308.607
t_skin: 35.4573
conv+sweat: -53.332
F_t: 308.351
t_skin: 35.2008
conv+sweat: -52.0241
F_t: 308.381
t_skin: 35.2308
conv+sweat: -52.1772
F_t: 308.121
t_skin: 34.9713
conv+sweat: -50.8535
F_t: 308.434
t_skin: 35.2843
conv+sweat: -52.4497
F_t: 308.878
t_skin: 35.7279
conv+sweat: -54.7125
F_t: 308.804
t_skin: 35.6543
conv+sweat: -54.3369
F_t: 308.588
t_skin: 35.438
conv+sweat: -53.2339
F_t: 308.483
t_skin: 35.3326
conv+sweat: -52.6964
F_t: 308.965
t_skin: 35.8147
conv+sweat: -55.1551
F_t: 308.728
t_skin: 35.5784
conv+sweat: -53.9496
F_t: 308.508
t_skin: 35.358
conv+sweat: -52.8259
F_t: 308.817
t_skin: 35.6671
conv+sweat: -54.402
F_t: 308.454
t_skin: 35.3037
conv+sweat: -52.5487
F_t: 308.916
t_skin: 35.7655
conv+sweat: -54.9042
F_t: 308.849
t_skin: 35.6994
conv+sweat: -54.567
F_t: 308.88
t_skin: 35.7299
conv+sweat: -54.7225
F_t: 308.924
t_skin: 35.7739
conv+sweat: -54.9469
F_t: 308.897
t_skin: 35.7467
conv+sweat: -54.8079
F_t: 309.098
t_skin: 35.948
conv+sweat: -55.8348
F_t: 308.6
t_skin: 35.45
conv+sweat: -53.2952
F_t: 308.427
t_skin: 35.2773
conv+sweat: -52.414
F_t: 308.83
t_skin: 35.6802
conv+sweat: -54.4691
F_t: 308.403
t_skin: 35.2534
conv+sweat: -52.2924
F_t: 308.805
t_skin: 35.6549
conv+sweat: -54.3401
F_t: 308.798
t_skin: 35.6484
conv+sweat: -54.307
F_t: 308.995
t_skin: 35.8451
conv+sweat: -55.3102
F_t: 308.878
t_skin: 35.7281
conv+sweat: -54.7132
F_t: 308.994
t_skin: 35.8435
conv+sweat: -55.3021
F_t: 309.121
t_skin: 35.9711
conv+sweat: -55.9524
F_t: 308.497
t_skin: 35.3469
conv+sweat: -52.7694
F_t: 308.574
t_skin: 35.4238
conv+sweat: -53.1614
F_t: 308.815
t_skin: 35.6646
conv+sweat: -54.3896
F_t: 308.742
t_skin: 35.5916
conv+sweat: -54.0169
F_t: 308.998
t_skin: 35.8481
conv+sweat: -55.3255
F_t: 309.125
t_skin: 35.9754
conv+sweat: -55.9747
F_t: 309.162
t_skin: 36.0122
conv+sweat: -56.1621
F_t: 308.976
t_skin: 35.8261
conv+sweat: -55.2132
F_t: 308.931
t_skin: 35.7808
conv+sweat: -54.9821
F_t: 308.74
t_skin: 35.5902
conv+sweat: -54.0101
F_t: 308.985
t_skin: 35.8351
conv+sweat: -55.2591
F_t: 308.732
t_skin: 35.5822
conv+sweat: -53.969
F_t: 308.961
t_skin: 35.8111
conv+sweat: -55.1365
F_t: 309.188
t_skin: 36.0378
conv+sweat: -56.2929
F_t: 308.903
t_skin: 35.7525
conv+sweat: -54.8379
F_t: 308.505
t_skin: 35.3554
conv+sweat: -52.8127
F_t: 308.066
t_skin: 34.9158
conv+sweat: -50.5704
F_t: 308.232
t_skin: 35.0822
conv+sweat: -51.4193
F_t: 308.279
t_skin: 35.1292
conv+sweat: -51.6589
F_t: 308.391
t_skin: 35.2413
conv+sweat: -52.2304
F_t: 308.086
t_skin: 34.9361
conv+sweat: -50.6739
F_t: 308.926
t_skin: 35.7762
conv+sweat: -54.9585
F_t: 308.785
t_skin: 35.6352
conv+sweat: -54.2396
F_t: 308.754
t_skin: 35.6036
conv+sweat: -54.0782
F_t: 309.036
t_skin: 35.8864
conv+sweat: -55.5205
F_t: 308.983
t_skin: 35.833
conv+sweat: -55.2484
F_t: 309.166
t_skin: 36.0162
conv+sweat: -56.1828
F_t: 309.206
t_skin: 36.0555
conv+sweat: -56.3831
F_t: 308.983
t_skin: 35.8333
conv+sweat: -55.25
F_t: 308.939
t_skin: 35.7892
conv+sweat: -55.025
F_t: 308.75
t_skin: 35.6003
conv+sweat: -54.0613
F_t: 308.824
t_skin: 35.6739
conv+sweat: -54.4371
F_t: 308.646
t_skin: 35.4962
conv+sweat: -53.5305
F_t: 308.778
t_skin: 35.6281
conv+sweat: -54.2032
F_t: 309.051
t_skin: 35.9008
conv+sweat: -55.5943
F_t: 308.327
t_skin: 35.1765
conv+sweat: -51.9003
F_t: 308.58
t_skin: 35.4298
conv+sweat: -53.1917
F_t: 308.675
t_skin: 35.5247
conv+sweat: -53.6758
F_t: 308.847
t_skin: 35.697
conv+sweat: -54.5546
F_t: 309.018
t_skin: 35.8683
conv+sweat: -55.4284
F_t: 308.898
t_skin: 35.7479
conv+sweat: -54.8145
F_t: 308.901
t_skin: 35.7512
conv+sweat: -54.8309
F_t: 308.954
t_skin: 35.8043
conv+sweat: -55.1021
F_t: 308.867
t_skin: 35.7171
conv+sweat: -54.6573
F_t: 308.92
t_skin: 35.7705
conv+sweat: -54.9293
F_t: 308.599
t_skin: 35.4491
conv+sweat: -53.2905
F_t: 309.119
t_skin: 35.9691
conv+sweat: -55.9423
F_t: 309.173
t_skin: 36.023
conv+sweat: -56.2171
F_t: 308.988
t_skin: 35.8379
conv+sweat: -55.2733
F_t: 308.937
t_skin: 35.787
conv+sweat: -55.0139
F_t: 308.746
t_skin: 35.5957
conv+sweat: -54.0379
F_t: 308.503
t_skin: 35.3525
conv+sweat: -52.7978
F_t: 308.332
t_skin: 35.1824
conv+sweat: -51.9302
F_t: 308.669
t_skin: 35.5195
conv+sweat: -53.6493
F_t: 308.37
t_skin: 35.2195
conv+sweat: -52.1195
F_t: 308.825
t_skin: 35.6747
conv+sweat: -54.4408
F_t: 308.82
t_skin: 35.6697
conv+sweat: -54.4154
F_t: 308.879
t_skin: 35.7293
conv+sweat: -54.7196
F_t: 309.171
t_skin: 36.0208
conv+sweat: -56.2061
F_t: 309.02
t_skin: 35.8698
conv+sweat: -55.4362
F_t: 309.095
t_skin: 35.9449
conv+sweat: -55.8191
F_t: 308.952
t_skin: 35.8021
conv+sweat: -55.0909
F_t: 308.922
t_skin: 35.7724
conv+sweat: -54.939
F_t: 309.237
t_skin: 36.0872
conv+sweat: -56.5447
F_t: 309.002
t_skin: 35.8522
conv+sweat: -55.3461
F_t: 308.566
t_skin: 35.4164
conv+sweat: -53.1239
F_t: 308.407
t_skin: 35.2573
conv+sweat: -52.3124
F_t: 308.049
t_skin: 34.8986
conv+sweat: -50.483
F_t: 308.268
t_skin: 35.1177
conv+sweat: -51.6001
F_t: 308.501
t_skin: 35.3507
conv+sweat: -52.7888
F_t: 308.822
t_skin: 35.6719
conv+sweat: -54.4265
F_t: 309.027
t_skin: 35.8775
conv+sweat: -55.4752
F_t: 308.939
t_skin: 35.7888
conv+sweat: -55.0231
F_t: 308.568
t_skin: 35.4179
conv+sweat: -53.1312
F_t: 309.001
t_skin: 35.8512
conv+sweat: -55.341
F_t: 309.022
t_skin: 35.8719
conv+sweat: -55.4467
F_t: 308.596
t_skin: 35.4457
conv+sweat: -53.273
F_t: 308.814
t_skin: 35.6645
conv+sweat: -54.3887
F_t: 309.066
t_skin: 35.9155
conv+sweat: -55.6693
F_t: 309.248
t_skin: 36.0979
conv+sweat: -56.5992
F_t: 308.888
t_skin: 35.7378
conv+sweat: -54.7626
F_t: 309.01
t_skin: 35.8598
conv+sweat: -55.3851
F_t: 308.511
t_skin: 35.3613
conv+sweat: -52.8427
F_t: 308.826
t_skin: 35.6756
conv+sweat: -54.4454
F_t: 308.937
t_skin: 35.7865
conv+sweat: -55.0113
F_t: 308.903
t_skin: 35.753
conv+sweat: -54.8405
F_t: 308.986
t_skin: 35.8364
conv+sweat: -55.2656
F_t: 309.064
t_skin: 35.914
conv+sweat: -55.6613
F_t: 308.898
t_skin: 35.7478
conv+sweat: -54.8138
F_t: 308.976
t_skin: 35.8257
conv+sweat: -55.2111
F_t: 308.998
t_skin: 35.8484
conv+sweat: -55.3267
F_t: 308.766
t_skin: 35.6157
conv+sweat: -54.1402
F_t: 308.754
t_skin: 35.6038
conv+sweat: -54.0795
F_t: 308.417
t_skin: 35.2671
conv+sweat: -52.3624
F_t: 308.562
t_skin: 35.4121
conv+sweat: -53.1019
F_t: 308.348
t_skin: 35.1985
conv+sweat: -52.0123
F_t: 308.151
t_skin: 35.0014
conv+sweat: -51.0073
F_t: 308.434
t_skin: 35.2837
conv+sweat: -52.4471
F_t: 308.201
t_skin: 35.0508
conv+sweat: -51.2593
F_t: 308.911
t_skin: 35.7606
conv+sweat: -54.8791
F_t: 309.038
t_skin: 35.8878
conv+sweat: -55.528
F_t: 308.944
t_skin: 35.7942
conv+sweat: -55.0506
F_t: 308.949
t_skin: 35.7986
conv+sweat: -55.0731
F_t: 308.795
t_skin: 35.6453
conv+sweat: -54.2912
F_t: 308.677
t_skin: 35.5272
conv+sweat: -53.6886
F_t: 308.553
t_skin: 35.4031
conv+sweat: -53.0558
F_t: 308.235
t_skin: 35.0853
conv+sweat: -51.4351
F_t: 308.526
t_skin: 35.3758
conv+sweat: -52.9167
F_t: 308.946
t_skin: 35.7959
conv+sweat: -55.0593
F_t: 308.951
t_skin: 35.8008
conv+sweat: -55.0842
F_t: 309.059
t_skin: 35.9088
conv+sweat: -55.6349
F_t: 308.854
t_skin: 35.7042
conv+sweat: -54.5915
F_t: 309.024
t_skin: 35.8742
conv+sweat: -55.4585
F_t: 308.449
t_skin: 35.2987
conv+sweat: -52.5233
F_t: 309.073
t_skin: 35.9235
conv+sweat: -55.7098
F_t: 308.888
t_skin: 35.738
conv+sweat: -54.7636
F_t: 308.948
t_skin: 35.7979
conv+sweat: -55.0692
F_t: 309.082
t_skin: 35.9319
conv+sweat: -55.7525
F_t: 308.413
t_skin: 35.2629
conv+sweat: -52.341
F_t: 308.546
t_skin: 35.3964
conv+sweat: -53.0217
F_t: 308.643
t_skin: 35.4932
conv+sweat: -53.5154
F_t: 309.086
t_skin: 35.9364
conv+sweat: -55.7756
F_t: 308.712
t_skin: 35.5615
conv+sweat: -53.8638
F_t: 309.06
t_skin: 35.9102
conv+sweat: -55.6418
F_t: 308.678
t_skin: 35.5279
conv+sweat: -53.6925
F_t: 308.726
t_skin: 35.5759
conv+sweat: -53.937
F_t: 308.701
t_skin: 35.5513
conv+sweat: -53.8118
F_t: 308.266
t_skin: 35.1159
conv+sweat: -51.5912
F_t: 308.3
t_skin: 35.15
conv+sweat: -51.765
F_t: 308.321
t_skin: 35.1711
conv+sweat: -51.8725
F_t: 308.612
t_skin: 35.462
conv+sweat: -53.3562
F_t: 308.896
t_skin: 35.7457
conv+sweat: -54.8032
F_t: 308.832
t_skin: 35.6822
conv+sweat: -54.4791
F_t: 308.823
t_skin: 35.6733
conv+sweat: -54.4339
F_t: 308.961
t_skin: 35.8109
conv+sweat: -55.1356
F_t: 308.903
t_skin: 35.7527
conv+sweat: -54.8388
F_t: 309.005
t_skin: 35.8552
conv+sweat: -55.3615
F_t: 309.241
t_skin: 36.0905
conv+sweat: -56.5616
F_t: 309.011
t_skin: 35.861
conv+sweat: -55.3911
F_t: 309.031
t_skin: 35.881
conv+sweat: -55.4931
F_t: 308.941
t_skin: 35.7906
conv+sweat: -55.0321
F_t: 308.745
t_skin: 35.5945
conv+sweat: -54.0322
F_t: 308.571
t_skin: 35.421
conv+sweat: -53.147
F_t: 308.202
t_skin: 35.0518
conv+sweat: -51.2644
F_t: 308.47
t_skin: 35.3204
conv+sweat: -52.6338
F_t: 308.683
t_skin: 35.5325
conv+sweat: -53.7159
F_t: 308.513
t_skin: 35.3631
conv+sweat: -52.8518
F_t: 308.467
t_skin: 35.3172
conv+sweat: -52.6178
F_t: 308.97
t_skin: 35.8202
conv+sweat: -55.1829
F_t: 308.92
t_skin: 35.77
conv+sweat: -54.9268
F_t: 309.083
t_skin: 35.9328
conv+sweat: -55.7573
F_t: 308.499
t_skin: 35.349
conv+sweat: -52.7801
F_t: 308.882
t_skin: 35.7322
conv+sweat: -54.7342
F_t: 309.049
t_skin: 35.8992
conv+sweat: -55.5861
F_t: 308.623
t_skin: 35.4734
conv+sweat: -53.4145
F_t: 309.076
t_skin: 35.9256
conv+sweat: -55.7203
F_t: 308.684
t_skin: 35.5341
conv+sweat: -53.7239
F_t: 308.987
t_skin: 35.8372
conv+sweat: -55.2698
F_t: 309.228
t_skin: 36.0775
conv+sweat: -56.4954
F_t: 308.882
t_skin: 35.7324
conv+sweat: -54.7352
F_t: 309.027
t_skin: 35.8771
conv+sweat: -55.4731
F_t: 308.818
t_skin: 35.6683
conv+sweat: -54.4082
F_t: 308.925
t_skin: 35.7746
conv+sweat: -54.9505
F_t: 308.638
t_skin: 35.488
conv+sweat: -53.4888
F_t: 309.06
t_skin: 35.9096
conv+sweat: -55.6388
F_t: 309.029
t_skin: 35.8795
conv+sweat: -55.4854
F_t: 308.984
t_skin: 35.8337
conv+sweat: -55.2519
F_t: 308.846
t_skin: 35.6962
conv+sweat: -54.5508
F_t: 309.002
t_skin: 35.8518
conv+sweat: -55.344
F_t: 308.53
t_skin: 35.3802
conv+sweat: -52.9391
F_t: 307.907
t_skin: 34.7572
conv+sweat: -49.7616
F_t: 308.331
t_skin: 35.1807
conv+sweat: -51.9216
F_t: 308.963
t_skin: 35.8134
conv+sweat: -55.1484
F_t: 308.762
t_skin: 35.6117
conv+sweat: -54.1199
F_t: 309.062
t_skin: 35.9124
conv+sweat: -55.6533
F_t: 309.131
t_skin: 35.9808
conv+sweat: -56.0019
F_t: 309.031
t_skin: 35.8807
conv+sweat: -55.4918
F_t: 309.051
t_skin: 35.9006
conv+sweat: -55.5929
F_t: 309.009
t_skin: 35.8586
conv+sweat: -55.3788
F_t: 308.857
t_skin: 35.7071
conv+sweat: -54.6064
F_t: 308.9
t_skin: 35.7498
conv+sweat: -54.8242
F_t: 308.867
t_skin: 35.7168
conv+sweat: -54.6555
F_t: 308.989
t_skin: 35.8394
conv+sweat: -55.2812
F_t: 308.723
t_skin: 35.5735
conv+sweat: -53.9247
F_t: 308.327
t_skin: 35.1771
conv+sweat: -51.903
F_t: 308.317
t_skin: 35.1674
conv+sweat: -51.8535
F_t: 308.576
t_skin: 35.4255
conv+sweat: -53.1702
F_t: 308.927
t_skin: 35.7766
conv+sweat: -54.9606
F_t: 308.994
t_skin: 35.8436
conv+sweat: -55.3023
F_t: 308.935
t_skin: 35.7849
conv+sweat: -55.0031
F_t: 308.931
t_skin: 35.7812
conv+sweat: -54.984
F_t: 309.015
t_skin: 35.8648
conv+sweat: -55.4105
F_t: 308.948
t_skin: 35.7978
conv+sweat: -55.0689
F_t: 308.851
t_skin: 35.7008
conv+sweat: -54.574
F_t: 309.047
t_skin: 35.8974
conv+sweat: -55.577
F_t: 309.049
t_skin: 35.8985
conv+sweat: -55.5825
F_t: 309.134
t_skin: 35.9839
conv+sweat: -56.0181
F_t: 308.645
t_skin: 35.4951
conv+sweat: -53.5249
F_t: 308.373
t_skin: 35.2229
conv+sweat: -52.1366
F_t: 308.751
t_skin: 35.601
conv+sweat: -54.0651
F_t: 308.962
t_skin: 35.8116
conv+sweat: -55.1391
F_t: 308.889
t_skin: 35.7393
conv+sweat: -54.7703
F_t: 309.045
t_skin: 35.8948
conv+sweat: -55.5632
F_t: 308.904
t_skin: 35.7541
conv+sweat: -54.846
F_t: 308.694
t_skin: 35.5436
conv+sweat: -53.7721
F_t: 308.991
t_skin: 35.8408
conv+sweat: -55.288
F_t: 308.976
t_skin: 35.8261
conv+sweat: -55.213
F_t: 308.999
t_skin: 35.8492
conv+sweat: -55.3308
F_t: 308.121
t_skin: 34.9713
conv+sweat: -50.8538
F_t: 308.849
t_skin: 35.6993
conv+sweat: -54.5666
F_t: 309.074
t_skin: 35.9238
conv+sweat: -55.7113
F_t: 308.253
t_skin: 35.1031
conv+sweat: -51.5257
F_t: 308.603
t_skin: 35.453
conv+sweat: -53.3101
F_t: 308.517
t_skin: 35.3666
conv+sweat: -52.8694
F_t: 308.085
t_skin: 34.9353
conv+sweat: -50.6703
F_t: 308.658
t_skin: 35.5078
conv+sweat: -53.5898
F_t: 309.105
t_skin: 35.9551
conv+sweat: -55.8712
F_t: 308.52
t_skin: 35.3703
conv+sweat: -52.8883
F_t: 308.977
t_skin: 35.8275
conv+sweat: -55.2202
F_t: 309.001
t_skin: 35.8509
conv+sweat: -55.3393
F_t: 308.86
t_skin: 35.7098
conv+sweat: -54.6199
F_t: 308.802
t_skin: 35.6516
conv+sweat: -54.3231
F_t: 308.966
t_skin: 35.8163
conv+sweat: -55.1633
F_t: 308.921
t_skin: 35.7713
conv+sweat: -54.9339
F_t: 308.987
t_skin: 35.8371
conv+sweat: -55.269
F_t: 308.833
t_skin: 35.6835
conv+sweat: -54.4857
F_t: 309.043
t_skin: 35.8934
conv+sweat: -55.5562
F_t: 308.877
t_skin: 35.7272
conv+sweat: -54.7085
F_t: 308.564
t_skin: 35.4136
conv+sweat: -53.1095
F_t: 308.449
t_skin: 35.2993
conv+sweat: -52.5263
F_t: 308.534
t_skin: 35.3844
conv+sweat: -52.9606
F_t: 308.176
t_skin: 35.0257
conv+sweat: -51.1312
F_t: 308.549
t_skin: 35.3989
conv+sweat: -53.0345
F_t: 308.441
t_skin: 35.2909
conv+sweat: -52.4835
F_t: 308.537
t_skin: 35.3866
conv+sweat: -52.9715
F_t: 308.698
t_skin: 35.5479
conv+sweat: -53.7942
F_t: 309.051
t_skin: 35.9008
conv+sweat: -55.5942
F_t: 308.924
t_skin: 35.7743
conv+sweat: -54.9488
F_t: 309.219
t_skin: 36.0689
conv+sweat: -56.4512
F_t: 308.886
t_skin: 35.7362
conv+sweat: -54.7544
F_t: 308.894
t_skin: 35.744
conv+sweat: -54.7945
F_t: 308.792
t_skin: 35.6424
conv+sweat: -54.2765
F_t: 308.536
t_skin: 35.3857
conv+sweat: -52.9673
F_t: 308.357
t_skin: 35.2065
conv+sweat: -52.0532
F_t: 308.759
t_skin: 35.6085
conv+sweat: -54.1034
F_t: 308.914
t_skin: 35.7635
conv+sweat: -54.8939
F_t: 309.015
t_skin: 35.8649
conv+sweat: -55.4111
F_t: 309.047
t_skin: 35.8975
conv+sweat: -55.5771
F_t: 308.72
t_skin: 35.5695
conv+sweat: -53.9045
F_t: 308.908
t_skin: 35.7581
conv+sweat: -54.8664
F_t: 308.982
t_skin: 35.8318
conv+sweat: -55.2421
F_t: 309.052
t_skin: 35.9023
conv+sweat: -55.6015
F_t: 308.726
t_skin: 35.5764
conv+sweat: -53.9398
F_t: 308.897
t_skin: 35.7471
conv+sweat: -54.8103
F_t: 309.097
t_skin: 35.9468
conv+sweat: -55.8284
F_t: 308.437
t_skin: 35.2866
conv+sweat: -52.4616
F_t: 308.808
t_skin: 35.6584
conv+sweat: -54.3579
F_t: 308.42
t_skin: 35.2697
conv+sweat: -52.3757
F_t: 308.007
t_skin: 34.8572
conv+sweat: -50.2719
F_t: 308.11
t_skin: 34.9601
conv+sweat: -50.7967
F_t: 308.072
t_skin: 34.9216
conv+sweat: -50.6
F_t: 308.188
t_skin: 35.0382
conv+sweat: -51.1949
F_t: 308.441
t_skin: 35.2914
conv+sweat: -52.486
F_t: 308.19
t_skin: 35.04
conv+sweat: -51.2042
F_t: 308.728
t_skin: 35.5778
conv+sweat: -53.9468
F_t: 308.842
t_skin: 35.692
conv+sweat: -54.5293
F_t: 308.906
t_skin: 35.7561
conv+sweat: -54.8563
F_t: 308.974
t_skin: 35.8241
conv+sweat: -55.2029
F_t: 308.903
t_skin: 35.7528
conv+sweat: -54.8392
F_t: 309.061
t_skin: 35.9108
conv+sweat: -55.6452
F_t: 309.07
t_skin: 35.9198
conv+sweat: -55.6909
F_t: 309.003
t_skin: 35.8528
conv+sweat: -55.3492
F_t: 309.108
t_skin: 35.9582
conv+sweat: -55.8866
F_t: 308.854
t_skin: 35.7041
conv+sweat: -54.591
F_t: 308.81
t_skin: 35.6599
conv+sweat: -54.3656
F_t: 309.018
t_skin: 35.8678
conv+sweat: -55.4255
F_t: 309.067
t_skin: 35.9168
conv+sweat: -55.6758
F_t: 308.772
t_skin: 35.622
conv+sweat: -54.172
F_t: 308.33
t_skin: 35.1804
conv+sweat: -51.9202
F_t: 308.585
t_skin: 35.435
conv+sweat: -53.2187
F_t: 308.515
t_skin: 35.365
conv+sweat: -52.8615
F_t: 308.232
t_skin: 35.0823
conv+sweat: -51.4199
F_t: 308.406
t_skin: 35.2562
conv+sweat: -52.3068
F_t: 309.026
t_skin: 35.8756
conv+sweat: -55.4655
F_t: 308.988
t_skin: 35.8377
conv+sweat: -55.2725
F_t: 308.931
t_skin: 35.7813
conv+sweat: -54.9846
F_t: 308.886
t_skin: 35.7364
conv+sweat: -54.7557
F_t: 309.024
t_skin: 35.8742
conv+sweat: -55.4582
F_t: 308.909
t_skin: 35.7594
conv+sweat: -54.8729
F_t: 309
t_skin: 35.85
conv+sweat: -55.3349
F_t: 309.124
t_skin: 35.9744
conv+sweat: -55.9694
F_t: 309.034
t_skin: 35.8841
conv+sweat: -55.5089
F_t: 308.789
t_skin: 35.6391
conv+sweat: -54.2595
F_t: 308.755
t_skin: 35.6054
conv+sweat: -54.0877
F_t: 308.308
t_skin: 35.1576
conv+sweat: -51.8039
F_t: 309.043
t_skin: 35.8926
conv+sweat: -55.552
F_t: 308.606
t_skin: 35.4563
conv+sweat: -53.3273
F_t: 308.749
t_skin: 35.599
conv+sweat: -54.0551
F_t: 308.905
t_skin: 35.7551
conv+sweat: -54.851
F_t: 308.983
t_skin: 35.8332
conv+sweat: -55.2494
F_t: 308.989
t_skin: 35.8394
conv+sweat: -55.2808
F_t: 308.917
t_skin: 35.7673
conv+sweat: -54.9135
F_t: 309.09
t_skin: 35.9397
conv+sweat: -55.7926
F_t: 308.953
t_skin: 35.8033
conv+sweat: -55.0966
F_t: 308.849
t_skin: 35.6985
conv+sweat: -54.5625
F_t: 308.8
t_skin: 35.65
conv+sweat: -54.3151
F_t: 308.955
t_skin: 35.8052
conv+sweat: -55.1066
F_t: 308.994
t_skin: 35.8436
conv+sweat: -55.3024
F_t: 309.029
t_skin: 35.8788
conv+sweat: -55.482
F_t: 309.075
t_skin: 35.9247
conv+sweat: -55.7158
F_t: 309.173
t_skin: 36.0225
conv+sweat: -56.2148
F_t: 309.159
t_skin: 36.0093
conv+sweat: -56.1475
F_t: 308.498
t_skin: 35.3482
conv+sweat: -52.776
F_t: 308.812
t_skin: 35.6625
conv+sweat: -54.3786
F_t: 308.653
t_skin: 35.5026
conv+sweat: -53.5632
F_t: 308.379
t_skin: 35.2287
conv+sweat: -52.1663
F_t: 308.464
t_skin: 35.3145
conv+sweat: -52.6037
F_t: 307.796
t_skin: 34.6457
conv+sweat: -49.1929
F_t: 308.463
t_skin: 35.3133
conv+sweat: -52.598
F_t: 308.207
t_skin: 35.0572
conv+sweat: -51.2917
F_t: 308.547
t_skin: 35.397
conv+sweat: -53.0247
F_t: 308.472
t_skin: 35.3218
conv+sweat: -52.6413
F_t: 308.446
t_skin: 35.2955
conv+sweat: -52.5071
F_t: 308.673
t_skin: 35.5234
conv+sweat: -53.6696
F_t: 308.423
t_skin: 35.2728
conv+sweat: -52.3915
F_t: 308.512
t_skin: 35.3617
conv+sweat: -52.8448
F_t: 308.821
t_skin: 35.6713
conv+sweat: -54.4235
F_t: 308.857
t_skin: 35.7066
conv+sweat: -54.6036
F_t: 309.021
t_skin: 35.8707
conv+sweat: -55.4404
F_t: 308.961
t_skin: 35.8109
conv+sweat: -55.1354
F_t: 309.047
t_skin: 35.8968
conv+sweat: -55.5734
F_t: 308.806
t_skin: 35.6561
conv+sweat: -54.3462
F_t: 308.792
t_skin: 35.6417
conv+sweat: -54.2727
F_t: 308.847
t_skin: 35.6967
conv+sweat: -54.553
F_t: 308.957
t_skin: 35.807
conv+sweat: -55.1155
F_t: 308.861
t_skin: 35.7113
conv+sweat: -54.6275
F_t: 309.145
t_skin: 35.9948
conv+sweat: -56.0736
F_t: 308.827
t_skin: 35.6768
conv+sweat: -54.4516
F_t: 308.876
t_skin: 35.7262
conv+sweat: -54.7034
F_t: 308.868
t_skin: 35.7185
conv+sweat: -54.6643
F_t: 309.044
t_skin: 35.8936
conv+sweat: -55.5575
F_t: 309.105
t_skin: 35.9548
conv+sweat: -55.8696
F_t: 308.421
t_skin: 35.2711
conv+sweat: -52.3827
F_t: 308.801
t_skin: 35.6514
conv+sweat: -54.3224
F_t: 308.424
t_skin: 35.2738
conv+sweat: -52.3964
F_t: 308.226
t_skin: 35.0762
conv+sweat: -51.3885
F_t: 308.577
t_skin: 35.4268
conv+sweat: -53.1769
F_t: 308.385
t_skin: 35.2353
conv+sweat: -52.2002
F_t: 308.443
t_skin: 35.293
conv+sweat: -52.4942
F_t: 309.085
t_skin: 35.9349
conv+sweat: -55.7679
F_t: 308.603
t_skin: 35.4527
conv+sweat: -53.3086
F_t: 309.047
t_skin: 35.8968
conv+sweat: -55.5735
F_t: 308.928
t_skin: 35.7777
conv+sweat: -54.9661
F_t: 309.207
t_skin: 36.0572
conv+sweat: -56.3918
F_t: 308.894
t_skin: 35.7438
conv+sweat: -54.7935
F_t: 309.044
t_skin: 35.8938
conv+sweat: -55.5585
F_t: 308.857
t_skin: 35.7066
conv+sweat: -54.6035
F_t: 308.912
t_skin: 35.7623
conv+sweat: -54.8878
F_t: 308.909
t_skin: 35.7593
conv+sweat: -54.8725
F_t: 308.785
t_skin: 35.6351
conv+sweat: -54.2391
F_t: 308.529
t_skin: 35.3786
conv+sweat: -52.9309
F_t: 308.6
t_skin: 35.4496
conv+sweat: -53.2931
F_t: 308.687
t_skin: 35.5369
conv+sweat: -53.7381
F_t: 308.804
t_skin: 35.6539
conv+sweat: -54.3351
F_t: 308.926
t_skin: 35.7765
conv+sweat: -54.9601
F_t: 308.969
t_skin: 35.8193
conv+sweat: -55.1784
F_t: 309.028
t_skin: 35.8775
conv+sweat: -55.4753
F_t: 309.025
t_skin: 35.8751
conv+sweat: -55.4629
F_t: 308.899
t_skin: 35.7489
conv+sweat: -54.8192
F_t: 308.909
t_skin: 35.7593
conv+sweat: -54.8726
F_t: 308.456
t_skin: 35.3062
conv+sweat: -52.5617
F_t: 309.04
t_skin: 35.8901
conv+sweat: -55.5393
F_t: 308.987
t_skin: 35.8372
conv+sweat: -55.2699
F_t: 309.084
t_skin: 35.9341
conv+sweat: -55.764
F_t: 308.3
t_skin: 35.1497
conv+sweat: -51.7634
F_t: 308.599
t_skin: 35.4486
conv+sweat: -53.288
F_t: 309.008
t_skin: 35.8579
conv+sweat: -55.3752
F_t: 308.901
t_skin: 35.7507
conv+sweat: -54.8288
F_t: 308.48
t_skin: 35.3299
conv+sweat: -52.6825
F_t: 308.467
t_skin: 35.3173
conv+sweat: -52.618
F_t: 308.241
t_skin: 35.0913
conv+sweat: -51.4655
F_t: 308.504
t_skin: 35.3535
conv+sweat: -52.8029
F_t: 308.412
t_skin: 35.2621
conv+sweat: -52.3367
F_t: 308.515
t_skin: 35.3653
conv+sweat: -52.863
F_t: 308.214
t_skin: 35.0638
conv+sweat: -51.3253
F_t: 308.64
t_skin: 35.4901
conv+sweat: -53.4994
F_t: 309.169
t_skin: 36.019
conv+sweat: -56.1968
F_t: 308.852
t_skin: 35.702
conv+sweat: -54.5802
F_t: 308.921
t_skin: 35.7707
conv+sweat: -54.9305
F_t: 309.22
t_skin: 36.0702
conv+sweat: -56.4579
F_t: 308.901
t_skin: 35.751
conv+sweat: -54.83
F_t: 308.574
t_skin: 35.4242
conv+sweat: -53.1632
F_t: 308.541
t_skin: 35.3914
conv+sweat: -52.9959
F_t: 308.914
t_skin: 35.7639
conv+sweat: -54.8961
F_t: 308.74
t_skin: 35.5897
conv+sweat: -54.0075
F_t: 309.144
t_skin: 35.9942
conv+sweat: -56.0704
F_t: 308.919
t_skin: 35.7691
conv+sweat: -54.9225
F_t: 308.879
t_skin: 35.7291
conv+sweat: -54.7186
F_t: 308.748
t_skin: 35.5984
conv+sweat: -54.0519
F_t: 308.842
t_skin: 35.6917
conv+sweat: -54.5275
F_t: 308.878
t_skin: 35.7279
conv+sweat: -54.7125
F_t: 308.431
t_skin: 35.2807
conv+sweat: -52.4315
F_t: 308.807
t_skin: 35.6574
conv+sweat: -54.353
F_t: 308.456
t_skin: 35.3059
conv+sweat: -52.5603
F_t: 308.594
t_skin: 35.4441
conv+sweat: -53.2651
F_t: 308.901
t_skin: 35.7507
conv+sweat: -54.8285
F_t: 308.903
t_skin: 35.7529
conv+sweat: -54.8396
F_t: 309.053
t_skin: 35.9031
conv+sweat: -55.6058
F_t: 309.137
t_skin: 35.9871
conv+sweat: -56.0344
F_t: 309.044
t_skin: 35.8936
conv+sweat: -55.5575
F_t: 309.111
t_skin: 35.961
conv+sweat: -55.9011
F_t: 308.872
t_skin: 35.7225
conv+sweat: -54.6846
F_t: 308.91
t_skin: 35.7601
conv+sweat: -54.8763
F_t: 308.575
t_skin: 35.4247
conv+sweat: -53.1661
F_t: 308.113
t_skin: 34.9635
conv+sweat: -50.8137
F_t: 308.917
t_skin: 35.7665
conv+sweat: -54.9093
F_t: 309.247
t_skin: 36.0966
conv+sweat: -56.5929
F_t: 308.862
t_skin: 35.7117
conv+sweat: -54.6294
F_t: 308.916
t_skin: 35.7664
conv+sweat: -54.9084
F_t: 309.093
t_skin: 35.9426
conv+sweat: -55.8073
F_t: 308.702
t_skin: 35.5518
conv+sweat: -53.814
F_t: 308.468
t_skin: 35.3183
conv+sweat: -52.6232
F_t: 308.929
t_skin: 35.7789
conv+sweat: -54.9725
F_t: 309.093
t_skin: 35.9434
conv+sweat: -55.8115
F_t: 308.612
t_skin: 35.4623
conv+sweat: -53.3578
F_t: 308.916
t_skin: 35.7665
conv+sweat: -54.9089
F_t: 308.536
t_skin: 35.3861
conv+sweat: -52.9689
F_t: 308.524
t_skin: 35.3744
conv+sweat: -52.9097
F_t: 308.411
t_skin: 35.2611
conv+sweat: -52.3316
F_t: 308.256
t_skin: 35.1064
conv+sweat: -51.5425
F_t: 308.424
t_skin: 35.2743
conv+sweat: -52.3988
F_t: 308.433
t_skin: 35.2832
conv+sweat: -52.4442
F_t: 308.762
t_skin: 35.6122
conv+sweat: -54.1221
F_t: 308.904
t_skin: 35.7539
conv+sweat: -54.845
F_t: 308.223
t_skin: 35.0733
conv+sweat: -51.3737
F_t: 308.538
t_skin: 35.3879
conv+sweat: -52.978
F_t: 308.113
t_skin: 34.9626
conv+sweat: -50.809
F_t: 308.853
t_skin: 35.703
conv+sweat: -54.5853
F_t: 308.86
t_skin: 35.7095
conv+sweat: -54.6185
F_t: 309.062
t_skin: 35.9117
conv+sweat: -55.6499
F_t: 308.85
t_skin: 35.6998
conv+sweat: -54.5692
F_t: 309.055
t_skin: 35.9054
conv+sweat: -55.6177
F_t: 309.008
t_skin: 35.8575
conv+sweat: -55.3734
F_t: 309.006
t_skin: 35.8556
conv+sweat: -55.3634
F_t: 308.589
t_skin: 35.4392
conv+sweat: -53.24
F_t: 309.016
t_skin: 35.8663
conv+sweat: -55.4181
F_t: 308.586
t_skin: 35.436
conv+sweat: -53.2236
F_t: 308.488
t_skin: 35.3382
conv+sweat: -52.7249
F_t: 308.259
t_skin: 35.109
conv+sweat: -51.5557
F_t: 308.722
t_skin: 35.5717
conv+sweat: -53.9158
F_t: 308.405
t_skin: 35.2549
conv+sweat: -52.2998
F_t: 308.053
t_skin: 34.9031
conv+sweat: -50.5059
F_t: 308.487
t_skin: 35.3369
conv+sweat: -52.7182
F_t: 308.65
t_skin: 35.5003
conv+sweat: -53.5516
F_t: 309.141
t_skin: 35.9905
conv+sweat: -56.0517
F_t: 308.862
t_skin: 35.7118
conv+sweat: -54.6303
F_t: 309.091
t_skin: 35.9406
conv+sweat: -55.797
F_t: 309.043
t_skin: 35.8929
conv+sweat: -55.5538
F_t: 308.876
t_skin: 35.726
conv+sweat: -54.7025
F_t: 308.95
t_skin: 35.7996
conv+sweat: -55.0781
F_t: 309.038
t_skin: 35.8882
conv+sweat: -55.53
F_t: 308.997
t_skin: 35.8465
conv+sweat: -55.3174
F_t: 308.566
t_skin: 35.4158
conv+sweat: -53.1205
F_t: 309.03
t_skin: 35.8795
conv+sweat: -55.4857
F_t: 308.84
t_skin: 35.6901
conv+sweat: -54.5194
F_t: 308.95
t_skin: 35.8
conv+sweat: -55.0797
F_t: 308.967
t_skin: 35.8167
conv+sweat: -55.1649
F_t: 308.822
t_skin: 35.6722
conv+sweat: -54.4284
F_t: 308.781
t_skin: 35.6307
conv+sweat: -54.2164
F_t: 308.743
t_skin: 35.5927
conv+sweat: -54.0228
F_t: 309.02
t_skin: 35.8699
conv+sweat: -55.4364
F_t: 308.995
t_skin: 35.8451
conv+sweat: -55.3098
F_t: 309.039
t_skin: 35.889
conv+sweat: -55.5341
F_t: 308.168
t_skin: 35.0184
conv+sweat: -51.0939
F_t: 308.156
t_skin: 35.0065
conv+sweat: -51.0329
F_t: 308.983
t_skin: 35.8334
conv+sweat: -55.2501
F_t: 308.869
t_skin: 35.7193
conv+sweat: -54.6682
F_t: 309.244
t_skin: 36.0943
conv+sweat: -56.5812
F_t: 308.391
t_skin: 35.2406
conv+sweat: -52.2272
F_t: 308.173
t_skin: 35.0228
conv+sweat: -51.1163
F_t: 308.782
t_skin: 35.6315
conv+sweat: -54.2207
F_t: 308.291
t_skin: 35.1409
conv+sweat: -51.7188
F_t: 309.027
t_skin: 35.8774
conv+sweat: -55.4747
F_t: 308.881
t_skin: 35.7312
conv+sweat: -54.7292
F_t: 307.93
t_skin: 34.7801
conv+sweat: -49.8787
F_t: 308.097
t_skin: 34.9472
conv+sweat: -50.7306
F_t: 308.469
t_skin: 35.3194
conv+sweat: -52.6289
F_t: 308.472
t_skin: 35.3217
conv+sweat: -52.6404
F_t: 309.178
t_skin: 36.0285
conv+sweat: -56.2453
F_t: 309.046
t_skin: 35.8962
conv+sweat: -55.5704
F_t: 308.881
t_skin: 35.7312
conv+sweat: -54.729
F_t: 308.907
t_skin: 35.7569
conv+sweat: -54.86
F_t: 309.028
t_skin: 35.8782
conv+sweat: -55.4787
F_t: 308.877
t_skin: 35.7265
conv+sweat: -54.7054
F_t: 308.969
t_skin: 35.8191
conv+sweat: -55.1776
F_t: 308.673
t_skin: 35.5227
conv+sweat: -53.6656
F_t: 308.93
t_skin: 35.7798
conv+sweat: -54.977
F_t: 308.202
t_skin: 35.0518
conv+sweat: -51.2643
F_t: 308.717
t_skin: 35.5672
conv+sweat: -53.8929
F_t: 309.006
t_skin: 35.8562
conv+sweat: -55.3666
F_t: 309.048
t_skin: 35.8979
conv+sweat: -55.5794
F_t: 308.99
t_skin: 35.8396
conv+sweat: -55.2819
F_t: 308.839
t_skin: 35.689
conv+sweat: -54.5137
F_t: 308.887
t_skin: 35.7367
conv+sweat: -54.7572
F_t: 308.853
t_skin: 35.7027
conv+sweat: -54.584
F_t: 309.143
t_skin: 35.9927
conv+sweat: -56.0625
F_t: 309.077
t_skin: 35.9271
conv+sweat: -55.7282
F_t: 309.062
t_skin: 35.9117
conv+sweat: -55.6497
F_t: 308.866
t_skin: 35.7157
conv+sweat: -54.6498
F_t: 308.892
t_skin: 35.7417
conv+sweat: -54.7828
F_t: 308.937
t_skin: 35.7872
conv+sweat: -55.0147
F_t: 308.995
t_skin: 35.8451
conv+sweat: -55.3102
F_t: 309.194
t_skin: 36.0437
conv+sweat: -56.3229
F_t: 308.939
t_skin: 35.7886
conv+sweat: -55.0218
F_t: 308.828
t_skin: 35.6778
conv+sweat: -54.457
F_t: 308.569
t_skin: 35.419
conv+sweat: -53.1369
F_t: 308.297
t_skin: 35.1467
conv+sweat: -51.7483
F_t: 308.45
t_skin: 35.2998
conv+sweat: -52.5289
F_t: 308.217
t_skin: 35.0667
conv+sweat: -51.3404
F_t: 308.571
t_skin: 35.4211
conv+sweat: -53.1478
F_t: 308.85
t_skin: 35.6999
conv+sweat: -54.5694
F_t: 308.879
t_skin: 35.7292
conv+sweat: -54.7189
F_t: 308.475
t_skin: 35.3248
conv+sweat: -52.6567
F_t: 308.127
t_skin: 34.9766
conv+sweat: -50.8806
F_t: 308.067
t_skin: 34.9167
conv+sweat: -50.5753
F_t: 307.968
t_skin: 34.8181
conv+sweat: -50.0724
F_t: 308.407
t_skin: 35.2571
conv+sweat: -52.311
F_t: 308.552
t_skin: 35.4016
conv+sweat: -53.0482
F_t: 308.973
t_skin: 35.8225
conv+sweat: -55.1948
F_t: 308.841
t_skin: 35.6908
conv+sweat: -54.5233
F_t: 309
t_skin: 35.8496
conv+sweat: -55.3329
F_t: 309.066
t_skin: 35.9161
conv+sweat: -55.6719
F_t: 308.947
t_skin: 35.7969
conv+sweat: -55.0643
F_t: 309.139
t_skin: 35.9887
conv+sweat: -56.0423
F_t: 308.884
t_skin: 35.7337
conv+sweat: -54.7418
F_t: 308.844
t_skin: 35.6938
conv+sweat: -54.5386
F_t: 309.239
t_skin: 36.0892
conv+sweat: -56.555
F_t: 308.938
t_skin: 35.7878
conv+sweat: -55.0178
F_t: 308.547
t_skin: 35.3974
conv+sweat: -53.0268
F_t: 308.405
t_skin: 35.2548
conv+sweat: -52.2994
F_t: 308.37
t_skin: 35.2198
conv+sweat: -52.1207
F_t: 308.582
t_skin: 35.4315
conv+sweat: -53.2007
F_t: 308.277
t_skin: 35.1275
conv+sweat: -51.6501
F_t: 308.749
t_skin: 35.5991
conv+sweat: -54.0556
F_t: 309.012
t_skin: 35.8623
conv+sweat: -55.3976
F_t: 308.934
t_skin: 35.7843
conv+sweat: -55
F_t: 308.803
t_skin: 35.653
conv+sweat: -54.3304
F_t: 308.786
t_skin: 35.6365
conv+sweat: -54.2461
F_t: 308.99
t_skin: 35.8395
conv+sweat: -55.2816
F_t: 308.978
t_skin: 35.8283
conv+sweat: -55.2242
F_t: 308.976
t_skin: 35.8256
conv+sweat: -55.2108
F_t: 308.579
t_skin: 35.429
conv+sweat: -53.1881
F_t: 308.869
t_skin: 35.7192
conv+sweat: -54.6678
F_t: 309.003
t_skin: 35.8533
conv+sweat: -55.352
F_t: 309.054
t_skin: 35.904
conv+sweat: -55.6106
F_t: 308.813
t_skin: 35.6626
conv+sweat: -54.3792
F_t: 308.332
t_skin: 35.1823
conv+sweat: -51.9297
F_t: 309.029
t_skin: 35.8792
conv+sweat: -55.4839
F_t: 308.827
t_skin: 35.6773
conv+sweat: -54.4543
F_t: 309.078
t_skin: 35.9275
conv+sweat: -55.7303
F_t: 308.454
t_skin: 35.3036
conv+sweat: -52.5481
F_t: 308.644
t_skin: 35.4942
conv+sweat: -53.5203
F_t: 308.2
t_skin: 35.0505
conv+sweat: -51.2573
F_t: 308.224
t_skin: 35.0739
conv+sweat: -51.377
F_t: 308.211
t_skin: 35.0613
conv+sweat: -51.3128
F_t: 308.259
t_skin: 35.1089
conv+sweat: -51.5553
F_t: 308.696
t_skin: 35.5458
conv+sweat: -53.7835
F_t: 308.644
t_skin: 35.4945
conv+sweat: -53.5219
F_t: 308.829
t_skin: 35.6787
conv+sweat: -54.4614
F_t: 308.357
t_skin: 35.2066
conv+sweat: -52.0536
F_t: 308.06
t_skin: 34.9096
conv+sweat: -50.5391
F_t: 308.473
t_skin: 35.3231
conv+sweat: -52.6478
F_t: 309.113
t_skin: 35.9632
conv+sweat: -55.9122
F_t: 308.903
t_skin: 35.7535
conv+sweat: -54.8428
F_t: 308.946
t_skin: 35.7961
conv+sweat: -55.0599
F_t: 308.861
t_skin: 35.7105
conv+sweat: -54.6238
F_t: 308.842
t_skin: 35.6922
conv+sweat: -54.5305
F_t: 308.875
t_skin: 35.7247
conv+sweat: -54.6962
F_t: 309.085
t_skin: 35.9354
conv+sweat: -55.7707
F_t: 308.947
t_skin: 35.7965
conv+sweat: -55.0622
F_t: 308.924
t_skin: 35.7745
conv+sweat: -54.9499
F_t: 308.744
t_skin: 35.5937
conv+sweat: -54.0276
F_t: 308.818
t_skin: 35.6675
conv+sweat: -54.4044
F_t: 308.542
t_skin: 35.3919
conv+sweat: -52.9985
F_t: 308.663
t_skin: 35.5129
conv+sweat: -53.6158
F_t: 309.008
t_skin: 35.8577
conv+sweat: -55.3742
F_t: 308.913
t_skin: 35.7628
conv+sweat: -54.8904
F_t: 308.808
t_skin: 35.6577
conv+sweat: -54.3541
F_t: 309.148
t_skin: 35.9982
conv+sweat: -56.0907
F_t: 309.05
t_skin: 35.9
conv+sweat: -55.5899
F_t: 308.976
t_skin: 35.8257
conv+sweat: -55.2109
F_t: 308.958
t_skin: 35.8081
conv+sweat: -55.1212
F_t: 308.846
t_skin: 35.696
conv+sweat: -54.5497
F_t: 308.915
t_skin: 35.7646
conv+sweat: -54.8994
F_t: 308.902
t_skin: 35.7517
conv+sweat: -54.8335
F_t: 308.969
t_skin: 35.8192
conv+sweat: -55.178
F_t: 308.972
t_skin: 35.822
conv+sweat: -55.1923
F_t: 309.024
t_skin: 35.8744
conv+sweat: -55.4596
F_t: 309.019
t_skin: 35.8687
conv+sweat: -55.4306
F_t: 308.921
t_skin: 35.7712
conv+sweat: -54.933
F_t: 308.91
t_skin: 35.7603
conv+sweat: -54.8777
F_t: 308.763
t_skin: 35.6128
conv+sweat: -54.1255
F_t: 308.77
t_skin: 35.62
conv+sweat: -54.1622
F_t: 308.352
t_skin: 35.202
conv+sweat: -52.0301
F_t: 308.964
t_skin: 35.8141
conv+sweat: -55.1517
F_t: 309.064
t_skin: 35.9145
conv+sweat: -55.6638
F_t: 308.472
t_skin: 35.3223
conv+sweat: -52.6436
F_t: 308.629
t_skin: 35.4791
conv+sweat: -53.4435
F_t: 308.127
t_skin: 34.9772
conv+sweat: -50.8837
F_t: 308.477
t_skin: 35.3272
conv+sweat: -52.6686
F_t: 308.483
t_skin: 35.3335
conv+sweat: -52.7006
F_t: 308.165
t_skin: 35.0149
conv+sweat: -51.0761
F_t: 308.412
t_skin: 35.2618
conv+sweat: -52.335
F_t: 308.445
t_skin: 35.2947
conv+sweat: -52.5029
F_t: 308.291
t_skin: 35.1415
conv+sweat: -51.7215
F_t: 308.698
t_skin: 35.5476
conv+sweat: -53.7926
F_t: 309.062
t_skin: 35.9118
conv+sweat: -55.6504
F_t: 308.916
t_skin: 35.7664
conv+sweat: -54.9084
F_t: 308.887
t_skin: 35.7373
conv+sweat: -54.7604
F_t: 309.054
t_skin: 35.9041
conv+sweat: -55.6107
F_t: 308.839
t_skin: 35.6889
conv+sweat: -54.5135
F_t: 308.848
t_skin: 35.6983
conv+sweat: -54.5615
F_t: 308.927
t_skin: 35.7772
conv+sweat: -54.9638
F_t: 308.889
t_skin: 35.7394
conv+sweat: -54.7712
F_t: 308.858
t_skin: 35.7082
conv+sweat: -54.6117
F_t: 308.871
t_skin: 35.7209
conv+sweat: -54.6768
F_t: 308.847
t_skin: 35.6969
conv+sweat: -54.5542
F_t: 309.074
t_skin: 35.9239
conv+sweat: -55.7119
F_t: 308.327
t_skin: 35.1769
conv+sweat: -51.902
F_t: 308.648
t_skin: 35.4976
conv+sweat: -53.5375
F_t: 308.543
t_skin: 35.3935
conv+sweat: -53.0067
F_t: 308.707
t_skin: 35.5573
conv+sweat: -53.8422
F_t: 308.366
t_skin: 35.2155
conv+sweat: -52.0992
F_t: 308.427
t_skin: 35.277
conv+sweat: -52.4125
F_t: 308.853
t_skin: 35.703
conv+sweat: -54.5855
F_t: 308.981
t_skin: 35.8312
conv+sweat: -55.2389
F_t: 308.919
t_skin: 35.7694
conv+sweat: -54.9241
F_t: 308.783
t_skin: 35.6328
conv+sweat: -54.2273
F_t: 308.883
t_skin: 35.7325
conv+sweat: -54.736
F_t: 308.881
t_skin: 35.7312
conv+sweat: -54.729
F_t: 308.548
t_skin: 35.398
conv+sweat: -53.03
F_t: 309.08
t_skin: 35.9305
conv+sweat: -55.7455
F_t: 308.692
t_skin: 35.542
conv+sweat: -53.7643
F_t: 308.778
t_skin: 35.6282
conv+sweat: -54.2036
F_t: 308.255
t_skin: 35.1048
conv+sweat: -51.5347
F_t: 308.444
t_skin: 35.2945
conv+sweat: -52.5019
F_t: 309.073
t_skin: 35.923
conv+sweat: -55.7074
F_t: 308.856
t_skin: 35.7058
conv+sweat: -54.5994
F_t: 308.671
t_skin: 35.5208
conv+sweat: -53.6562
F_t: 308.316
t_skin: 35.1664
conv+sweat: -51.8488
F_t: 308.342
t_skin: 35.1925
conv+sweat: -51.9816
F_t: 308.608
t_skin: 35.4582
conv+sweat: -53.3366
F_t: 308.238
t_skin: 35.0876
conv+sweat: -51.4467
F_t: 308.06
t_skin: 34.9098
conv+sweat: -50.5398
F_t: 308.205
t_skin: 35.0546
conv+sweat: -51.2785
F_t: 308.629
t_skin: 35.4787
conv+sweat: -53.4412
F_t: 307.981
t_skin: 34.8306
conv+sweat: -50.1362
F_t: 308.326
t_skin: 35.1758
conv+sweat: -51.8964
F_t: 308.159
t_skin: 35.0089
conv+sweat: -51.0454
F_t: 308.44
t_skin: 35.2905
conv+sweat: -52.4813
F_t: 308.118
t_skin: 34.9677
conv+sweat: -50.8355
F_t: 308.999
t_skin: 35.849
conv+sweat: -55.3301
F_t: 308.825
t_skin: 35.6751
conv+sweat: -54.4429
F_t: 308.809
t_skin: 35.6592
conv+sweat: -54.3621
F_t: 309.005
t_skin: 35.8547
conv+sweat: -55.3588
F_t: 309.006
t_skin: 35.8564
conv+sweat: -55.3678
F_t: 308.331
t_skin: 35.1808
conv+sweat: -51.9219
F_t: 308.43
t_skin: 35.2796
conv+sweat: -52.4261
F_t: 308.609
t_skin: 35.4586
conv+sweat: -53.3391
F_t: 308.274
t_skin: 35.1241
conv+sweat: -51.6328
F_t: 308.472
t_skin: 35.3218
conv+sweat: -52.6411
F_t: 308.79
t_skin: 35.6396
conv+sweat: -54.262
F_t: 309.034
t_skin: 35.8838
conv+sweat: -55.5071
F_t: 308.904
t_skin: 35.7545
conv+sweat: -54.8477
F_t: 309.065
t_skin: 35.9154
conv+sweat: -55.6684
F_t: 308.817
t_skin: 35.6671
conv+sweat: -54.4024
F_t: 308.749
t_skin: 35.5993
conv+sweat: -54.0563
F_t: 308.949
t_skin: 35.7985
conv+sweat: -55.0724
F_t: 308.745
t_skin: 35.595
conv+sweat: -54.0343
F_t: 308.969
t_skin: 35.8188
conv+sweat: -55.1761
F_t: 308.916
t_skin: 35.7664
conv+sweat: -54.9087
F_t: 308.829
t_skin: 35.6792
conv+sweat: -54.4641
F_t: 308.696
t_skin: 35.5464
conv+sweat: -53.7865
F_t: 308.812
t_skin: 35.6617
conv+sweat: -54.3747
F_t: 308.903
t_skin: 35.7526
conv+sweat: -54.8382
F_t: 309.056
t_skin: 35.9063
conv+sweat: -55.622
F_t: 309.008
t_skin: 35.8582
conv+sweat: -55.3766
F_t: 308.458
t_skin: 35.3078
conv+sweat: -52.5699
F_t: 308.168
t_skin: 35.0178
conv+sweat: -51.0909
F_t: 308.338
t_skin: 35.1883
conv+sweat: -51.9604
F_t: 308.718
t_skin: 35.5679
conv+sweat: -53.8963
F_t: 308.489
t_skin: 35.3389
conv+sweat: -52.7286
F_t: 309.128
t_skin: 35.9776
conv+sweat: -55.9857
F_t: 308.095
t_skin: 34.9445
conv+sweat: -50.717
F_t: 308.518
t_skin: 35.368
conv+sweat: -52.8768
F_t: 309.213
t_skin: 36.063
conv+sweat: -56.4212
F_t: 308.288
t_skin: 35.1384
conv+sweat: -51.7061
F_t: 308.668
t_skin: 35.518
conv+sweat: -53.642
F_t: 308.8
t_skin: 35.6499
conv+sweat: -54.3142
F_t: 308.655
t_skin: 35.5047
conv+sweat: -53.5739
F_t: 308.379
t_skin: 35.2287
conv+sweat: -52.1664
F_t: 308.014
t_skin: 34.8643
conv+sweat: -50.3079
F_t: 308.063
t_skin: 34.9127
conv+sweat: -50.555
F_t: 308.161
t_skin: 35.0109
conv+sweat: -51.0557
F_t: 309.034
t_skin: 35.8845
conv+sweat: -55.5107
F_t: 308.705
t_skin: 35.5553
conv+sweat: -53.8321
F_t: 308.874
t_skin: 35.7241
conv+sweat: -54.6928
F_t: 308.858
t_skin: 35.7082
conv+sweat: -54.6117
F_t: 308.744
t_skin: 35.5943
conv+sweat: -54.0308
F_t: 308.812
t_skin: 35.6619
conv+sweat: -54.3757
F_t: 308.168
t_skin: 35.0176
conv+sweat: -51.0899
F_t: 308.581
t_skin: 35.4312
conv+sweat: -53.1992
F_t: 308.666
t_skin: 35.5164
conv+sweat: -53.6337
F_t: 308.289
t_skin: 35.1388
conv+sweat: -51.708
F_t: 308.103
t_skin: 34.953
conv+sweat: -50.7602
F_t: 308.725
t_skin: 35.5749
conv+sweat: -53.9322
F_t: 308.46
t_skin: 35.3101
conv+sweat: -52.5814
F_t: 308.738
t_skin: 35.588
conv+sweat: -53.9988
F_t: 308.584
t_skin: 35.4341
conv+sweat: -53.2137
F_t: 308.422
t_skin: 35.2723
conv+sweat: -52.3887
F_t: 309.017
t_skin: 35.8668
conv+sweat: -55.4205
F_t: 308.988
t_skin: 35.838
conv+sweat: -55.2739
F_t: 309.07
t_skin: 35.92
conv+sweat: -55.6919
F_t: 308.663
t_skin: 35.5126
conv+sweat: -53.6141
F_t: 308.839
t_skin: 35.6886
conv+sweat: -54.5116
F_t: 309.014
t_skin: 35.8643
conv+sweat: -55.4079
F_t: 308.974
t_skin: 35.8235
conv+sweat: -55.1999
F_t: 308.933
t_skin: 35.7835
conv+sweat: -54.9957
F_t: 308.994
t_skin: 35.8435
conv+sweat: -55.302
F_t: 308.913
t_skin: 35.7632
conv+sweat: -54.8926
F_t: 309.001
t_skin: 35.8511
conv+sweat: -55.3408
F_t: 308.908
t_skin: 35.7581
conv+sweat: -54.8664
F_t: 308.847
t_skin: 35.697
conv+sweat: -54.5547
F_t: 308.773
t_skin: 35.6235
conv+sweat: -54.1797
F_t: 309.02
t_skin: 35.87
conv+sweat: -55.4369
F_t: 308.591
t_skin: 35.4413
conv+sweat: -53.2506
F_t: 308.819
t_skin: 35.6689
conv+sweat: -54.4112
F_t: 309.002
t_skin: 35.8525
conv+sweat: -55.3476
F_t: 308.927
t_skin: 35.7773
conv+sweat: -54.9643
F_t: 309.087
t_skin: 35.9372
conv+sweat: -55.7797
F_t: 308.775
t_skin: 35.6245
conv+sweat: -54.185
F_t: 308.328
t_skin: 35.1781
conv+sweat: -51.9081
F_t: 308.158
t_skin: 35.0084
conv+sweat: -51.0429
F_t: 308.095
t_skin: 34.9453
conv+sweat: -50.7212
F_t: 308.842
t_skin: 35.6921
conv+sweat: -54.5298
F_t: 308.661
t_skin: 35.5109
conv+sweat: -53.6057
F_t: 308.414
t_skin: 35.264
conv+sweat: -52.3464
F_t: 308.428
t_skin: 35.2784
conv+sweat: -52.4199
F_t: 308.476
t_skin: 35.3255
conv+sweat: -52.6601
F_t: 308.213
t_skin: 35.0626
conv+sweat: -51.3191
F_t: 308.105
t_skin: 34.9546
conv+sweat: -50.7686
F_t: 308.671
t_skin: 35.521
conv+sweat: -53.6572
F_t: 308.372
t_skin: 35.2217
conv+sweat: -52.1309
F_t: 308.297
t_skin: 35.1473
conv+sweat: -51.751
F_t: 308.278
t_skin: 35.1276
conv+sweat: -51.6507
F_t: 308.95
t_skin: 35.7996
conv+sweat: -55.0779
F_t: 308.992
t_skin: 35.8417
conv+sweat: -55.2925
F_t: 308.755
t_skin: 35.6047
conv+sweat: -54.0841
F_t: 309.037
t_skin: 35.8871
conv+sweat: -55.524
F_t: 308.865
t_skin: 35.7155
conv+sweat: -54.6488
F_t: 308.998
t_skin: 35.8479
conv+sweat: -55.3245
F_t: 308.495
t_skin: 35.345
conv+sweat: -52.7595
F_t: 309.044
t_skin: 35.8936
conv+sweat: -55.5573
F_t: 308.178
t_skin: 35.0284
conv+sweat: -51.1446
F_t: 308.294
t_skin: 35.1438
conv+sweat: -51.7333
F_t: 308.801
t_skin: 35.6513
conv+sweat: -54.3218
F_t: 308.735
t_skin: 35.5846
conv+sweat: -53.9815
F_t: 308.504
t_skin: 35.3541
conv+sweat: -52.806
F_t: 308.48
t_skin: 35.3303
conv+sweat: -52.6846
F_t: 309.011
t_skin: 35.8614
conv+sweat: -55.3933
F_t: 308.97
t_skin: 35.8203
conv+sweat: -55.1835
F_t: 308.828
t_skin: 35.6783
conv+sweat: -54.4591
F_t: 308.842
t_skin: 35.6917
conv+sweat: -54.5275
F_t: 308.845
t_skin: 35.6953
conv+sweat: -54.546
F_t: 308.932
t_skin: 35.7816
conv+sweat: -54.9864
F_t: 308.727
t_skin: 35.5773
conv+sweat: -53.9441
F_t: 308.997
t_skin: 35.8472
conv+sweat: -55.3206
F_t: 309.036
t_skin: 35.8863
conv+sweat: -55.5203
F_t: 309.022
t_skin: 35.8717
conv+sweat: -55.4459
F_t: 309.063
t_skin: 35.9126
conv+sweat: -55.6543
F_t: 308.442
t_skin: 35.2923
conv+sweat: -52.4905
F_t: 308.798
t_skin: 35.6484
conv+sweat: -54.3067
F_t: 308.884
t_skin: 35.7339
conv+sweat: -54.743
F_t: 308.509
t_skin: 35.3588
conv+sweat: -52.8297
F_t: 308.211
t_skin: 35.0613
conv+sweat: -51.3126
F_t: 308.524
t_skin: 35.3744
conv+sweat: -52.9092
F_t: 308.397
t_skin: 35.2465
conv+sweat: -52.2572
F_t: 308.316
t_skin: 35.1663
conv+sweat: -51.8481
F_t: 308.823
t_skin: 35.6729
conv+sweat: -54.4315
F_t: 308.683
t_skin: 35.5328
conv+sweat: -53.7171
F_t: 308.058
t_skin: 34.9085
conv+sweat: -50.5333
F_t: 308.388
t_skin: 35.2384
conv+sweat: -52.216
F_t: 308.597
t_skin: 35.4466
conv+sweat: -53.2779
F_t: 308.216
t_skin: 35.0664
conv+sweat: -51.3385
F_t: 308.513
t_skin: 35.3634
conv+sweat: -52.8534
F_t: 307.893
t_skin: 34.7432
conv+sweat: -49.6905
F_t: 308.16
t_skin: 35.0098
conv+sweat: -51.0501
F_t: 308.234
t_skin: 35.0841
conv+sweat: -51.4291
F_t: 309.057
t_skin: 35.9071
conv+sweat: -55.6261
F_t: 308.802
t_skin: 35.6518
conv+sweat: -54.324
F_t: 309.144
t_skin: 35.9945
conv+sweat: -56.0718
[...]
F_t: 308.727
t_skin: 35.5766
conv+sweat: -53.9404
F_t: 308.255
t_skin: 35.1046
conv+sweat: -51.5334
F_t: 309.148
t_skin: 35.998
conv+sweat: -56.0898
F_t: 308.663
t_skin: 35.5133
conv+sweat: -53.618
F_t: 308.779
t_skin: 35.6286
conv+sweat: -54.2059
F_t: 308.687
t_skin: 35.5375
conv+sweat: -53.7411
F_t: 308.754
t_skin: 35.6037
conv+sweat: -54.0788
F_t: 308.766
t_skin: 35.6157
conv+sweat: -54.1398
F_t: 308.558
t_skin: 35.4076
conv+sweat: -53.079
F_t: 309.001
t_skin: 35.851
conv+sweat: -55.34
F_t: 308.296
t_skin: 35.1465
conv+sweat: -51.747
F_t: 308.302
t_skin: 35.1517
conv+sweat: -51.7737
F_t: 308.361
t_skin: 35.2111
conv+sweat: -52.0769
F_t: 308.994
t_skin: 35.8439
conv+sweat: -55.3041
F_t: 308.427
t_skin: 35.2774
conv+sweat: -52.4145
F_t: 308.732
t_skin: 35.5818
conv+sweat: -53.9672
F_t: 308.207
t_skin: 35.0575
conv+sweat: -51.2931
F_t: 308.773
t_skin: 35.6235
conv+sweat: -54.1797
F_t: 308.305
t_skin: 35.1548
conv+sweat: -51.7896
F_t: 308.809
t_skin: 35.6587
conv+sweat: -54.3592
F_t: 308.721
t_skin: 35.5707
conv+sweat: -53.9107
F_t: 309.205
t_skin: 36.0552
conv+sweat: -56.3817
F_t: 308.885
t_skin: 35.7348
conv+sweat: -54.7473
F_t: 308.831
t_skin: 35.681
conv+sweat: -54.4732
F_t: 308.531
t_skin: 35.3806
conv+sweat: -52.9411
F_t: 308.785
t_skin: 35.6345
conv+sweat: -54.2361
F_t: 308.355
t_skin: 35.205
conv+sweat: -52.0457
F_t: 308.698
t_skin: 35.5481
conv+sweat: -53.7951
F_t: 308.824
t_skin: 35.6736
conv+sweat: -54.4354
F_t: 308.623
t_skin: 35.4727
conv+sweat: -53.4106
F_t: 308.694
t_skin: 35.5441
conv+sweat: -53.7751
F_t: 308.582
t_skin: 35.432
conv+sweat: -53.2033
F_t: 308.226
t_skin: 35.0756
conv+sweat: -51.3854
F_t: 308.533
t_skin: 35.3833
conv+sweat: -52.955
F_t: 309.141
t_skin: 35.9908
conv+sweat: -56.0529
F_t: 308.74
t_skin: 35.5895
conv+sweat: -54.0065
F_t: 308.369
t_skin: 35.2191
conv+sweat: -52.1172
F_t: 308.85
t_skin: 35.7002
conv+sweat: -54.5708
F_t: 308.685
t_skin: 35.5354
conv+sweat: -53.7307
F_t: 308.824
t_skin: 35.6739
conv+sweat: -54.4371
F_t: 308.87
t_skin: 35.7201
conv+sweat: -54.6728
F_t: 308.768
t_skin: 35.618
conv+sweat: -54.1516
F_t: 308.502
t_skin: 35.3521
conv+sweat: -52.7955
F_t: 308.763
t_skin: 35.6131
conv+sweat: -54.127
F_t: 308.741
t_skin: 35.5914
conv+sweat: -54.016
F_t: 308.333
t_skin: 35.1828
conv+sweat: -51.9321
F_t: 308.293
t_skin: 35.1431
conv+sweat: -51.7298
F_t: 308.056
t_skin: 34.9057
conv+sweat: -50.5193
F_t: 308.474
t_skin: 35.3239
conv+sweat: -52.6521
F_t: 308.796
t_skin: 35.6461
conv+sweat: -54.2951
F_t: 308.797
t_skin: 35.6469
conv+sweat: -54.2991
F_t: 308.573
t_skin: 35.4227
conv+sweat: -53.1558
F_t: 308.883
t_skin: 35.7326
conv+sweat: -54.7364
F_t: 308.184
t_skin: 35.0336
conv+sweat: -51.1715
F_t: 308.703
t_skin: 35.5527
conv+sweat: -53.8187
F_t: 308.219
t_skin: 35.0692
conv+sweat: -51.3532
F_t: 308.37
t_skin: 35.2198
conv+sweat: -52.1211
F_t: 308.417
t_skin: 35.2668
conv+sweat: -52.3609
F_t: 308.275
t_skin: 35.1247
conv+sweat: -51.6361
F_t: 308.261
t_skin: 35.1114
conv+sweat: -51.5681
F_t: 308.797
t_skin: 35.647
conv+sweat: -54.2997
F_t: 308.639
t_skin: 35.4886
conv+sweat: -53.492
F_t: 308.734
t_skin: 35.584
conv+sweat: -53.9782
F_t: 308.995
t_skin: 35.8449
conv+sweat: -55.3088
F_t: 309.285
t_skin: 36.1349
conv+sweat: -56.7878
F_t: 308.773
t_skin: 35.623
conv+sweat: -54.1773
F_t: 308.545
t_skin: 35.3949
conv+sweat: -53.0142
F_t: 308.749
t_skin: 35.5985
conv+sweat: -54.0525
F_t: 308.718
t_skin: 35.5684
conv+sweat: -53.899
F_t: 308.553
t_skin: 35.4034
conv+sweat: -53.0574
F_t: 308.974
t_skin: 35.8245
conv+sweat: -55.2049
F_t: 308.87
t_skin: 35.7203
conv+sweat: -54.6736
F_t: 308.958
t_skin: 35.8079
conv+sweat: -55.1204
F_t: 308.782
t_skin: 35.6315
conv+sweat: -54.2207
F_t: 308.591
t_skin: 35.4415
conv+sweat: -53.2514
F_t: 308.37
t_skin: 35.2205
conv+sweat: -52.1245
F_t: 308.209
t_skin: 35.0589
conv+sweat: -51.3002
F_t: 308.476
t_skin: 35.3265
conv+sweat: -52.665
F_t: 308.221
t_skin: 35.0707
conv+sweat: -51.3604
F_t: 308.54
t_skin: 35.3903
conv+sweat: -52.9904
F_t: 308.395
t_skin: 35.2448
conv+sweat: -52.2483
F_t: 308.807
t_skin: 35.6568
conv+sweat: -54.3498
F_t: 307.762
t_skin: 34.6118
conv+sweat: -49.0201
F_t: 308.271
t_skin: 35.1213
conv+sweat: -51.6188
F_t: 307.821
t_skin: 34.6713
conv+sweat: -49.3235
F_t: 308.619
t_skin: 35.4689
conv+sweat: -53.3915
F_t: 308.254
t_skin: 35.1036
conv+sweat: -51.5285
F_t: 308.568
t_skin: 35.4175
conv+sweat: -53.1294
F_t: 308.522
t_skin: 35.3718
conv+sweat: -52.8964
F_t: 308.122
t_skin: 34.9725
conv+sweat: -50.8596
F_t: 307.812
t_skin: 34.6623
conv+sweat: -49.2778
F_t: 308.344
t_skin: 35.1941
conv+sweat: -51.9901
F_t: 308.364
t_skin: 35.2139
conv+sweat: -52.091
F_t: 308.755
t_skin: 35.6054
conv+sweat: -54.0874
F_t: 309.167
t_skin: 36.0174
conv+sweat: -56.1889
F_t: 308.898
t_skin: 35.7476
conv+sweat: -54.8129
F_t: 309.017
t_skin: 35.867
conv+sweat: -55.4215
F_t: 308.432
t_skin: 35.2816
conv+sweat: -52.4361
F_t: 308.596
t_skin: 35.4462
conv+sweat: -53.2754
F_t: 308.691
t_skin: 35.5407
conv+sweat: -53.7574
F_t: 308.923
t_skin: 35.7728
conv+sweat: -54.9415
F_t: 308.798
t_skin: 35.6477
conv+sweat: -54.3035
F_t: 308.961
t_skin: 35.8109
conv+sweat: -55.1357
F_t: 308.735
t_skin: 35.5849
conv+sweat: -53.9831
F_t: 308.908
t_skin: 35.7577
conv+sweat: -54.8641
F_t: 308.649
t_skin: 35.4993
conv+sweat: -53.5462
F_t: 308.727
t_skin: 35.5769
conv+sweat: -53.9421
F_t: 308.897
t_skin: 35.7475
conv+sweat: -54.8121
F_t: 308.647
t_skin: 35.4967
conv+sweat: -53.5331
F_t: 308.718
t_skin: 35.5684
conv+sweat: -53.8987
F_t: 308.814
t_skin: 35.664
conv+sweat: -54.3864
F_t: 307.734
t_skin: 34.584
conv+sweat: -48.8782
F_t: 308.543
t_skin: 35.3934
conv+sweat: -53.0062
F_t: 308.599
t_skin: 35.4493
conv+sweat: -53.2913
F_t: 308.689
t_skin: 35.5393
conv+sweat: -53.7504
F_t: 308.302
t_skin: 35.152
conv+sweat: -51.7753
F_t: 308.14
t_skin: 34.99
conv+sweat: -50.9488
F_t: 308.087
t_skin: 34.9375
conv+sweat: -50.681
F_t: 308.376
t_skin: 35.2263
conv+sweat: -52.1543
F_t: 308.512
t_skin: 35.3621
conv+sweat: -52.8468
F_t: 308.386
t_skin: 35.2361
conv+sweat: -52.2043
F_t: 308.57
t_skin: 35.4203
conv+sweat: -53.1437
F_t: 308.333
t_skin: 35.183
conv+sweat: -51.9334
F_t: 308.426
t_skin: 35.2762
conv+sweat: -52.4087
F_t: 308.777
t_skin: 35.6269
conv+sweat: -54.1974
F_t: 308.669
t_skin: 35.519
conv+sweat: -53.647
F_t: 308.948
t_skin: 35.7977
conv+sweat: -55.068
F_t: 308.82
t_skin: 35.67
conv+sweat: -54.4169
F_t: 308.398
t_skin: 35.2482
conv+sweat: -52.2657
F_t: 308.732
t_skin: 35.5818
conv+sweat: -53.9671
F_t: 308.366
t_skin: 35.2158
conv+sweat: -52.1007
F_t: 308.471
t_skin: 35.321
conv+sweat: -52.6372
F_t: 308.88
t_skin: 35.7297
conv+sweat: -54.7215
F_t: 308.677
t_skin: 35.5266
conv+sweat: -53.6858
F_t: 308.86
t_skin: 35.7097
conv+sweat: -54.6196
F_t: 308.912
t_skin: 35.7621
conv+sweat: -54.8869
F_t: 308.866
t_skin: 35.7157
conv+sweat: -54.6503
F_t: 308.833
t_skin: 35.683
conv+sweat: -54.4835
F_t: 308.443
t_skin: 35.293
conv+sweat: -52.4945
F_t: 307.891
t_skin: 34.7407
conv+sweat: -49.6777
F_t: 307.914
t_skin: 34.7641
conv+sweat: -49.797
F_t: 308.299
t_skin: 35.1491
conv+sweat: -51.7603
F_t: 308.768
t_skin: 35.6183
conv+sweat: -54.1531
F_t: 308.652
t_skin: 35.5015
conv+sweat: -53.5578
F_t: 309.123
t_skin: 35.9731
conv+sweat: -55.9627
F_t: 308.185
t_skin: 35.035
conv+sweat: -51.1786
F_t: 308.384
t_skin: 35.2335
conv+sweat: -52.1911
F_t: 308.372
t_skin: 35.2221
conv+sweat: -52.1329
F_t: 308.207
t_skin: 35.0566
conv+sweat: -51.2886
F_t: 308.248
t_skin: 35.098
conv+sweat: -51.4999
F_t: 308.212
t_skin: 35.0621
conv+sweat: -51.3168
F_t: 308.389
t_skin: 35.2393
conv+sweat: -52.2205
F_t: 308.65
t_skin: 35.5002
conv+sweat: -53.5508
F_t: 308.244
t_skin: 35.0937
conv+sweat: -51.4778
F_t: 308.562
t_skin: 35.4124
conv+sweat: -53.1031
F_t: 308.173
t_skin: 35.0229
conv+sweat: -51.1168
F_t: 308.391
t_skin: 35.2411
conv+sweat: -52.2295
F_t: 308.291
t_skin: 35.1408
conv+sweat: -51.7183
F_t: 308.006
t_skin: 34.8562
conv+sweat: -50.2665
F_t: 308.415
t_skin: 35.265
conv+sweat: -52.3518
F_t: 308.405
t_skin: 35.2555
conv+sweat: -52.303
F_t: 308.808
t_skin: 35.6578
conv+sweat: -54.3546
F_t: 308.942
t_skin: 35.7921
conv+sweat: -55.0395
F_t: 308.676
t_skin: 35.5256
conv+sweat: -53.6804
F_t: 308.662
t_skin: 35.5125
conv+sweat: -53.6137
F_t: 308.594
t_skin: 35.4443
conv+sweat: -53.266
F_t: 308.263
t_skin: 35.1126
conv+sweat: -51.5742
F_t: 308.79
t_skin: 35.6403
conv+sweat: -54.2657
F_t: 308.498
t_skin: 35.3485
conv+sweat: -52.7773
F_t: 308.591
t_skin: 35.4412
conv+sweat: -53.25
F_t: 308.179
t_skin: 35.0292
conv+sweat: -51.1488
F_t: 308.314
t_skin: 35.1643
conv+sweat: -51.8377
F_t: 308.884
t_skin: 35.7339
conv+sweat: -54.7427
F_t: 308.776
t_skin: 35.6256
conv+sweat: -54.1903
F_t: 308.814
t_skin: 35.6639
conv+sweat: -54.3858
F_t: 308.678
t_skin: 35.5277
conv+sweat: -53.6912
F_t: 308.684
t_skin: 35.5336
conv+sweat: -53.7216
F_t: 308.776
t_skin: 35.6264
conv+sweat: -54.1949
F_t: 308.402
t_skin: 35.2516
conv+sweat: -52.2834
F_t: 308.578
t_skin: 35.4281
conv+sweat: -53.1835
F_t: 308.526
t_skin: 35.3762
conv+sweat: -52.9184
F_t: 308.794
t_skin: 35.6442
conv+sweat: -54.2854
F_t: 308.193
t_skin: 35.0433
conv+sweat: -51.2207
F_t: 308.827
t_skin: 35.6769
conv+sweat: -54.4523
F_t: 308.036
t_skin: 34.8858
conv+sweat: -50.4174
F_t: 308.476
t_skin: 35.3259
conv+sweat: -52.6621
F_t: 308.341
t_skin: 35.1909
conv+sweat: -51.9735
F_t: 308.329
t_skin: 35.1792
conv+sweat: -51.9138
F_t: 308.537
t_skin: 35.387
conv+sweat: -52.9735
F_t: 308.232
t_skin: 35.0822
conv+sweat: -51.4193
F_t: 308.737
t_skin: 35.5873
conv+sweat: -53.9954
F_t: 308.879
t_skin: 35.7287
conv+sweat: -54.7164
F_t: 308.57
t_skin: 35.4201
conv+sweat: -53.1426
F_t: 308.627
t_skin: 35.4769
conv+sweat: -53.4324
F_t: 308.647
t_skin: 35.4972
conv+sweat: -53.5359
F_t: 308.483
t_skin: 35.333
conv+sweat: -52.6981
F_t: 308.541
t_skin: 35.3915
conv+sweat: -52.9964
F_t: 308.751
t_skin: 35.6012
conv+sweat: -54.066
F_t: 308.402
t_skin: 35.2521
conv+sweat: -52.2859
F_t: 308.638
t_skin: 35.4878
conv+sweat: -53.4876
F_t: 308.86
t_skin: 35.7103
conv+sweat: -54.6223
F_t: 308.667
t_skin: 35.5169
conv+sweat: -53.636
F_t: 308.572
t_skin: 35.4224
conv+sweat: -53.1543
F_t: 308.663
t_skin: 35.5135
conv+sweat: -53.6186
F_t: 308.731
t_skin: 35.5809
conv+sweat: -53.9625
F_t: 308.759
t_skin: 35.6094
conv+sweat: -54.1077
F_t: 308.131
t_skin: 34.9812
conv+sweat: -50.9042
F_t: 308.589
t_skin: 35.4388
conv+sweat: -53.2381
F_t: 308.205
t_skin: 35.0554
conv+sweat: -51.2825
F_t: 308.501
t_skin: 35.3509
conv+sweat: -52.7896
F_t: 309.246
t_skin: 36.0956
conv+sweat: -56.5875
F_t: 308.36
t_skin: 35.2098
conv+sweat: -52.07
F_t: 308.31
t_skin: 35.1597
conv+sweat: -51.8146
F_t: 308.37
t_skin: 35.2198
conv+sweat: -52.1212
F_t: 308.508
t_skin: 35.3577
conv+sweat: -52.824
F_t: 308.493
t_skin: 35.3434
conv+sweat: -52.7513
F_t: 308.492
t_skin: 35.3423
conv+sweat: -52.7456
F_t: 308.503
t_skin: 35.3531
conv+sweat: -52.8009
F_t: 308.217
t_skin: 35.0666
conv+sweat: -51.3397
F_t: 308.638
t_skin: 35.4878
conv+sweat: -53.4877
F_t: 308.283
t_skin: 35.1327
conv+sweat: -51.6767
F_t: 308.406
t_skin: 35.256
conv+sweat: -52.3058
F_t: 308.281
t_skin: 35.131
conv+sweat: -51.6683
F_t: 308.595
t_skin: 35.4453
conv+sweat: -53.271
F_t: 308.316
t_skin: 35.1661
conv+sweat: -51.847
F_t: 308.312
t_skin: 35.162
conv+sweat: -51.8262
F_t: 308.509
t_skin: 35.3589
conv+sweat: -52.8302
F_t: 308.241
t_skin: 35.0907
conv+sweat: -51.4627
F_t: 308.736
t_skin: 35.586
conv+sweat: -53.9886
F_t: 308.552
t_skin: 35.4025
conv+sweat: -53.0526
F_t: 308.359
t_skin: 35.2087
conv+sweat: -52.0642
F_t: 308.338
t_skin: 35.1884
conv+sweat: -51.961
F_t: 308.669
t_skin: 35.5191
conv+sweat: -53.6473
F_t: 308.579
t_skin: 35.4291
conv+sweat: -53.1886
F_t: 308.524
t_skin: 35.3738
conv+sweat: -52.9066
F_t: 308.417
t_skin: 35.2666
conv+sweat: -52.3596
F_t: 308.737
t_skin: 35.5867
conv+sweat: -53.9921
F_t: 308.294
t_skin: 35.1441
conv+sweat: -51.7348
Done.

> (cx-gui-do cx-set-list-tree-selections "NavigationPane*Frame2*Table1*List_Tree2" (list "Solution|Report Definitions|core_temp"))
(cx-gui-do cx-list-tree-right-click "NavigationPane*Frame2*Table1*List_Tree2" )
(cx-gui-do cx-set-toggle-button2 "General*Table1*Table2(Solver)*ToggleBox5(Time)*Transient" #t)
(cx-gui-do cx-activate-item "General*Table1*Table2(Solver)*ToggleBox5(Time)*Transient")
Information: Report Plot(s) core_temp-rplot, wavg_tiss_temp-rplot, blood_temp-rplot, report-def-0-rplot, report-plot-0 updated to get data every time-step.
Information: Report File(s) core_temp-rfile, wavg_tiss_temp-rfile, blood_temp-rfile, report-def-0-rfile, report-file-0 updated to get data every time-step.
(cx-gui-do cx-set-toggle-button2 "General*Table1*Table2(Solver)*ToggleBox5(Time)*Steady" #t)
(cx-gui-do cx-activate-item "General*Table1*Table2(Solver)*ToggleBox5(Time)*Steady")
Warning:Instantaneous values of report definitions will be used for "core_temp-rplot" as the "frequency-of" is set to "iteration".
Warning:Instantaneous values of report definitions will be used for "wavg_tiss_temp-rplot" as the "frequency-of" is set to "iteration".
Warning:Instantaneous values of report definitions will be used for "blood_temp-rplot" as the "frequency-of" is set to "iteration".
Warning:Instantaneous values of report definitions will be used for "report-def-0-rplot" as the "frequency-of" is set to "iteration".
Warning:Instantaneous values of report definitions will be used for "report-plot-0" as the "frequency-of" is set to "iteration".
Information: Report Plot(s) core_temp-rplot, wavg_tiss_temp-rplot, blood_temp-rplot, report-def-0-rplot, report-plot-0 updated to get data every iteration.
Information: Report File(s) core_temp-rfile, wavg_tiss_temp-rfile, blood_temp-rfile, report-def-0-rfile, report-file-0 updated to get data every iteration.
Warning: Removing report definition flow-time from blood_temp-rfile.
Warning: Removing report definition flow-time from core_temp-rfile.
Warning: Removing report definition flow-time from report-def-0-rfile.
Warning: Removing report definition flow-time from report-file-0.
Warning: Removing report definition flow-time from wavg_tiss_temp-rfile.
(cx-gui-do cx-set-list-tree-selections "NavigationPane*Frame2*Table1*List_Tree2" (list "Solution|Monitors|Report Files|report-def-0-rfile"))
(cx-gui-do cx-set-list-tree-selections "NavigationPane*Frame2*Table1*List_Tree2" (list "Solution|Monitors|Report Files|report-def-0-rfile"))
(cx-gui-do cx-activate-item "NavigationPane*Frame2*Table1*List_Tree2")
(cx-gui-do cx-set-list-tree-selections "NavigationPane*Frame2*Table1*List_Tree2" (list "Solution|Monitors|Report Files|report-def-0-rfile"))
(cx-gui-do cx-activate-item "Edit Report File*PanelButtons*PushButton2(Cancel)")
(cx-gui-do cx-set-list-tree-selections "NavigationPane*Frame2*Table1*List_Tree2" (list "Solution|Monitors|Report Files|report-file-0"))
(cx-gui-do cx-set-list-tree-selections "NavigationPane*Frame2*Table1*List_Tree2" (list "Solution|Monitors|Report Files|report-file-0""Solution|Monitors|Report Files|core_temp-rfile"))
(cx-gui-do cx-set-list-tree-selections "NavigationPane*Frame2*Table1*List_Tree2" (list "Solution|Monitors|Report Files|report-file-0""Solution|Monitors|Report Files|core_temp-rfile"))
(cx-gui-do cx-list-tree-right-click "NavigationPane*Frame2*Table1*List_Tree2" )
(cx-gui-do cx-activate-item "MenuBar*PopupMenuPopupMenu*Delete")
(cx-gui-do cx-activate-item "Question *PanelButtons*PushButton1(Close)")
(cx-gui-do cx-set-list-tree-selections "NavigationPane*Frame2*Table1*List_Tree2" (list "Solution|Monitors|Report Files|core_temp-rfile"))
(cx-gui-do cx-set-list-tree-selections "NavigationPane*Frame2*Table1*List_Tree2" (list "Solution|Report Definitions|core_temp"))
(cx-gui-do cx-set-list-tree-selections "NavigationPane*Frame2*Table1*List_Tree2" (list "Solution|Report Definitions|core_temp"))
(cx-gui-do cx-activate-item "NavigationPane*Frame2*Table1*List_Tree2")
(cx-gui-do cx-set-list-tree-selections "NavigationPane*Frame2*Table1*List_Tree2" (list "Solution|Report Definitions|core_temp"))
(cx-gui-do cx-activate-item "Volume Report Definition*PanelButtons*PushButton2(Cancel)")
(cx-gui-do cx-set-list-tree-selections "NavigationPane*Frame2*Table1*List_Tree2" (list "Solution|Report Definitions|blood_temp"))
(cx-gui-do cx-set-list-tree-selections "NavigationPane*Frame2*Table1*List_Tree2" (list "Solution|Report Definitions|blood_temp"))
(cx-gui-do cx-activate-item "NavigationPane*Frame2*Table1*List_Tree2")
(cx-gui-do cx-set-list-tree-selections "NavigationPane*Frame2*Table1*List_Tree2" (list "Solution|Report Definitions|blood_temp"))
(cx-gui-do cx-activate-item "Volume Report Definition*PanelButtons*PushButton2(Cancel)")
(cx-gui-do cx-set-list-tree-selections "NavigationPane*Frame2*Table1*List_Tree2" (list "Solution|Report Definitions|wavg_tiss_temp"))
(cx-gui-do cx-set-list-tree-selections "NavigationPane*Frame2*Table1*List_Tree2" (list "Solution|Report Definitions|wavg_tiss_temp"))
(cx-gui-do cx-activate-item "NavigationPane*Frame2*Table1*List_Tree2")
(cx-gui-do cx-set-list-tree-selections "NavigationPane*Frame2*Table1*List_Tree2" (list "Solution|Report Definitions|wavg_tiss_temp"))
(cx-gui-do cx-activate-item "Volume Report Definition*PanelButtons*PushButton2(Cancel)")
(cx-gui-do cx-set-list-tree-selections "NavigationPane*Frame2*Table1*List_Tree2" (list "Solution|Monitors|Report Files|report-file-0"))
(cx-gui-do cx-set-list-tree-selections "NavigationPane*Frame2*Table1*List_Tree2" (list "Solution|Monitors|Report Files|report-file-0""Solution|Monitors|Report Files|core_temp-rfile"))
(cx-gui-do cx-set-list-tree-selections "NavigationPane*Frame2*Table1*List_Tree2" (list "Solution|Monitors|Report Files|report-file-0""Solution|Monitors|Report Files|core_temp-rfile"))
(cx-gui-do cx-list-tree-right-click "NavigationPane*Frame2*Table1*List_Tree2" )
(cx-gui-do cx-activate-item "MenuBar*PopupMenuPopupMenu*Delete")
(cx-gui-do cx-activate-item "Question *PanelButtons*PushButton3(Yes)")
(cx-gui-do cx-set-list-tree-selections "NavigationPane*Frame2*Table1*List_Tree2" (list "Solution|Monitors|Report Files|report-def-0-rfile"))
(cx-gui-do cx-list-tree-right-click "NavigationPane*Frame2*Table1*List_Tree2" )
(cx-gui-do cx-activate-item "MenuBar*PopupMenuTree-report-def-0-rfile*Edit...")
(cx-gui-do cx-set-text-entry "Edit Report File*Table1*Table1*TextEntry1(Name)" "core_temp-rfile")
(cx-gui-do cx-activate-item "Edit Report File*Table1*Table1*TextEntry1(Name)")
(cx-gui-do cx-activate-item "Edit Report File*PanelButtons*PushButton1(OK)")
(cx-gui-do cx-set-list-tree-selections "NavigationPane*Frame2*Table1*List_Tree2" (list "Solution|Monitors|Report Files|core_temp-rfile"))
(cx-gui-do cx-set-list-tree-selections "NavigationPane*Frame2*Table1*List_Tree2" (list "Solution|Monitors|Report Files|core_temp-rfile"))
(cx-gui-do cx-activate-item "NavigationPane*Frame2*Table1*List_Tree2")
(cx-gui-do cx-set-list-tree-selections "NavigationPane*Frame2*Table1*List_Tree2" (list "Solution|Monitors|Report Files|core_temp-rfile"))
(cx-gui-do cx-set-text-entry "Edit Report File*Table1*Table6(File Name)*TextEntry1" ".\\core_temp-rfile.out")
(cx-gui-do cx-activate-item "Edit Report File*PanelButtons*PushButton1(OK)")
(cx-gui-do cx-activate-item "MenuBar*WriteSubMenu*Case & Data...")
(cx-gui-do cx-set-file-dialog-entries "Select File" '( "Exercise_Case_SteadyState.cas.h5") "CFF Case/Data Files (*.cas.h5 *.dat.h5 )")
(cx-gui-do cx-activate-item "Question*OK")

Writing to BME-BANER-01:"C:/Users/Research/Desktop/CBT_pred/cases/exercise/with_sweating/case_1/Exercise_Case_SteadyState.cas.h5" in NODE0 mode and compression level 1 ...
Grouping cells for Laplace smoothing ...
       59946 cells,     3 zones ...
      127549 faces,     9 zones ...
       14632 nodes,     1 zone  ...
  Done.
Done.

Writing to BME-BANER-01:"C:/Users/Research/Desktop/CBT_pred/cases/exercise/with_sweating/case_1/Exercise_Case_SteadyState.dat.h5" in NODE0 mode and compression level 1 ...
  Writing results.
Done.
/exit y
Auto-Transcript Stop Time:  16:37:43, 01 Apr 2026 Eastern Daylight Time 
Total Transcript Time: 3 Minute 24 Second.
